* NGSPICE file created from interp_tri.ext - technology: gf180mcuD

* Black-box entry subcircuit for gf180mcu_fd_sc_mcu7t5v0__oai21_1 abstract view
.subckt gf180mcu_fd_sc_mcu7t5v0__oai21_1 A1 A2 B ZN VDD VNW VPW VSS
.ends

* Black-box entry subcircuit for gf180mcu_fd_sc_mcu7t5v0__nand2_1 abstract view
.subckt gf180mcu_fd_sc_mcu7t5v0__nand2_1 A1 A2 ZN VDD VNW VPW VSS
.ends

* Black-box entry subcircuit for gf180mcu_fd_sc_mcu7t5v0__fill_1 abstract view
.subckt gf180mcu_fd_sc_mcu7t5v0__fill_1 VDD VNW VPW VSS
.ends

* Black-box entry subcircuit for gf180mcu_fd_sc_mcu7t5v0__fillcap_8 abstract view
.subckt gf180mcu_fd_sc_mcu7t5v0__fillcap_8 VDD VNW VPW VSS
.ends

* Black-box entry subcircuit for gf180mcu_fd_sc_mcu7t5v0__filltie abstract view
.subckt gf180mcu_fd_sc_mcu7t5v0__filltie VDD VSS
.ends

* Black-box entry subcircuit for gf180mcu_fd_sc_mcu7t5v0__fill_2 abstract view
.subckt gf180mcu_fd_sc_mcu7t5v0__fill_2 VDD VNW VPW VSS
.ends

* Black-box entry subcircuit for gf180mcu_fd_sc_mcu7t5v0__antenna abstract view
.subckt gf180mcu_fd_sc_mcu7t5v0__antenna I VDD VNW VPW VSS
.ends

* Black-box entry subcircuit for gf180mcu_fd_sc_mcu7t5v0__clkbuf_1 abstract view
.subckt gf180mcu_fd_sc_mcu7t5v0__clkbuf_1 I Z VDD VNW VPW VSS
.ends

* Black-box entry subcircuit for gf180mcu_fd_sc_mcu7t5v0__dffq_1 abstract view
.subckt gf180mcu_fd_sc_mcu7t5v0__dffq_1 D CLK Q VDD VNW VPW VSS
.ends

* Black-box entry subcircuit for gf180mcu_fd_sc_mcu7t5v0__clkinv_1 abstract view
.subckt gf180mcu_fd_sc_mcu7t5v0__clkinv_1 I ZN VDD VNW VPW VSS
.ends

* Black-box entry subcircuit for gf180mcu_fd_sc_mcu7t5v0__aoi22_1 abstract view
.subckt gf180mcu_fd_sc_mcu7t5v0__aoi22_1 A1 A2 B1 B2 ZN VDD VNW VPW VSS
.ends

* Black-box entry subcircuit for gf180mcu_fd_sc_mcu7t5v0__oai211_1 abstract view
.subckt gf180mcu_fd_sc_mcu7t5v0__oai211_1 A1 A2 B C ZN VDD VNW VPW VSS
.ends

* Black-box entry subcircuit for gf180mcu_fd_sc_mcu7t5v0__oai21_4 abstract view
.subckt gf180mcu_fd_sc_mcu7t5v0__oai21_4 A1 A2 B ZN VDD VNW VPW VSS
.ends

* Black-box entry subcircuit for gf180mcu_fd_sc_mcu7t5v0__fillcap_4 abstract view
.subckt gf180mcu_fd_sc_mcu7t5v0__fillcap_4 VDD VNW VPW VSS
.ends

* Black-box entry subcircuit for gf180mcu_fd_sc_mcu7t5v0__xor2_1 abstract view
.subckt gf180mcu_fd_sc_mcu7t5v0__xor2_1 A1 A2 Z VDD VNW VPW VSS
.ends

* Black-box entry subcircuit for gf180mcu_fd_sc_mcu7t5v0__aoi21_1 abstract view
.subckt gf180mcu_fd_sc_mcu7t5v0__aoi21_1 A1 A2 B ZN VDD VNW VPW VSS
.ends

* Black-box entry subcircuit for gf180mcu_fd_sc_mcu7t5v0__nor2_1 abstract view
.subckt gf180mcu_fd_sc_mcu7t5v0__nor2_1 A1 A2 ZN VDD VNW VPW VSS
.ends

* Black-box entry subcircuit for gf180mcu_fd_sc_mcu7t5v0__and2_4 abstract view
.subckt gf180mcu_fd_sc_mcu7t5v0__and2_4 A1 A2 Z VDD VNW VPW VSS
.ends

* Black-box entry subcircuit for gf180mcu_fd_sc_mcu7t5v0__xor3_1 abstract view
.subckt gf180mcu_fd_sc_mcu7t5v0__xor3_1 A1 A2 A3 Z VDD VNW VPW VSS
.ends

* Black-box entry subcircuit for gf180mcu_fd_sc_mcu7t5v0__clkinv_2 abstract view
.subckt gf180mcu_fd_sc_mcu7t5v0__clkinv_2 I ZN VDD VNW VPW VSS
.ends

* Black-box entry subcircuit for gf180mcu_fd_sc_mcu7t5v0__aoi21_2 abstract view
.subckt gf180mcu_fd_sc_mcu7t5v0__aoi21_2 A1 A2 B ZN VDD VNW VPW VSS
.ends

* Black-box entry subcircuit for gf180mcu_fd_sc_mcu7t5v0__xnor2_1 abstract view
.subckt gf180mcu_fd_sc_mcu7t5v0__xnor2_1 A1 A2 ZN VDD VNW VPW VSS
.ends

* Black-box entry subcircuit for gf180mcu_fd_sc_mcu7t5v0__endcap abstract view
.subckt gf180mcu_fd_sc_mcu7t5v0__endcap VDD VSS
.ends

* Black-box entry subcircuit for gf180mcu_fd_sc_mcu7t5v0__buf_3 abstract view
.subckt gf180mcu_fd_sc_mcu7t5v0__buf_3 I Z VDD VNW VPW VSS
.ends

* Black-box entry subcircuit for gf180mcu_fd_sc_mcu7t5v0__nand2_2 abstract view
.subckt gf180mcu_fd_sc_mcu7t5v0__nand2_2 A1 A2 ZN VDD VNW VPW VSS
.ends

* Black-box entry subcircuit for gf180mcu_fd_sc_mcu7t5v0__and2_1 abstract view
.subckt gf180mcu_fd_sc_mcu7t5v0__and2_1 A1 A2 Z VDD VNW VPW VSS
.ends

* Black-box entry subcircuit for gf180mcu_fd_sc_mcu7t5v0__or2_1 abstract view
.subckt gf180mcu_fd_sc_mcu7t5v0__or2_1 A1 A2 Z VDD VNW VPW VSS
.ends

* Black-box entry subcircuit for gf180mcu_fd_sc_mcu7t5v0__buf_2 abstract view
.subckt gf180mcu_fd_sc_mcu7t5v0__buf_2 I Z VDD VNW VPW VSS
.ends

* Black-box entry subcircuit for gf180mcu_fd_sc_mcu7t5v0__and4_1 abstract view
.subckt gf180mcu_fd_sc_mcu7t5v0__and4_1 A1 A2 A3 A4 Z VDD VNW VPW VSS
.ends

* Black-box entry subcircuit for gf180mcu_fd_sc_mcu7t5v0__aoi211_1 abstract view
.subckt gf180mcu_fd_sc_mcu7t5v0__aoi211_1 A1 A2 B C ZN VDD VNW VPW VSS
.ends

* Black-box entry subcircuit for gf180mcu_fd_sc_mcu7t5v0__or4_4 abstract view
.subckt gf180mcu_fd_sc_mcu7t5v0__or4_4 A1 A2 A3 A4 Z VDD VNW VPW VSS
.ends

* Black-box entry subcircuit for gf180mcu_fd_sc_mcu7t5v0__buf_1 abstract view
.subckt gf180mcu_fd_sc_mcu7t5v0__buf_1 I Z VDD VNW VPW VSS
.ends

* Black-box entry subcircuit for gf180mcu_fd_sc_mcu7t5v0__xor3_2 abstract view
.subckt gf180mcu_fd_sc_mcu7t5v0__xor3_2 A1 A2 A3 Z VDD VNW VPW VSS
.ends

* Black-box entry subcircuit for gf180mcu_fd_sc_mcu7t5v0__xnor3_2 abstract view
.subckt gf180mcu_fd_sc_mcu7t5v0__xnor3_2 A1 A2 A3 ZN VDD VNW VPW VSS
.ends

* Black-box entry subcircuit for gf180mcu_fd_sc_mcu7t5v0__xnor3_1 abstract view
.subckt gf180mcu_fd_sc_mcu7t5v0__xnor3_1 A1 A2 A3 ZN VDD VNW VPW VSS
.ends

* Black-box entry subcircuit for gf180mcu_fd_sc_mcu7t5v0__inv_1 abstract view
.subckt gf180mcu_fd_sc_mcu7t5v0__inv_1 I ZN VDD VNW VPW VSS
.ends

* Black-box entry subcircuit for gf180mcu_fd_sc_mcu7t5v0__dlya_2 abstract view
.subckt gf180mcu_fd_sc_mcu7t5v0__dlya_2 I Z VDD VNW VPW VSS
.ends

* Black-box entry subcircuit for gf180mcu_fd_sc_mcu7t5v0__nand3_1 abstract view
.subckt gf180mcu_fd_sc_mcu7t5v0__nand3_1 A1 A2 A3 ZN VDD VNW VPW VSS
.ends

* Black-box entry subcircuit for gf180mcu_fd_sc_mcu7t5v0__aoi211_2 abstract view
.subckt gf180mcu_fd_sc_mcu7t5v0__aoi211_2 A1 A2 B C ZN VDD VNW VPW VSS
.ends

* Black-box entry subcircuit for gf180mcu_fd_sc_mcu7t5v0__clkbuf_2 abstract view
.subckt gf180mcu_fd_sc_mcu7t5v0__clkbuf_2 I Z VDD VNW VPW VSS
.ends

* Black-box entry subcircuit for gf180mcu_fd_sc_mcu7t5v0__or3_1 abstract view
.subckt gf180mcu_fd_sc_mcu7t5v0__or3_1 A1 A2 A3 Z VDD VNW VPW VSS
.ends

* Black-box entry subcircuit for gf180mcu_fd_sc_mcu7t5v0__aoi21_4 abstract view
.subckt gf180mcu_fd_sc_mcu7t5v0__aoi21_4 A1 A2 B ZN VDD VNW VPW VSS
.ends

* Black-box entry subcircuit for gf180mcu_fd_sc_mcu7t5v0__fillcap_16 abstract view
.subckt gf180mcu_fd_sc_mcu7t5v0__fillcap_16 VDD VNW VPW VSS
.ends

* Black-box entry subcircuit for gf180mcu_fd_sc_mcu7t5v0__xor2_2 abstract view
.subckt gf180mcu_fd_sc_mcu7t5v0__xor2_2 A1 A2 Z VDD VNW VPW VSS
.ends

* Black-box entry subcircuit for gf180mcu_fd_sc_mcu7t5v0__xnor2_2 abstract view
.subckt gf180mcu_fd_sc_mcu7t5v0__xnor2_2 A1 A2 ZN VDD VNW VPW VSS
.ends

* Black-box entry subcircuit for gf180mcu_fd_sc_mcu7t5v0__clkbuf_4 abstract view
.subckt gf180mcu_fd_sc_mcu7t5v0__clkbuf_4 I Z VDD VNW VPW VSS
.ends

* Black-box entry subcircuit for gf180mcu_fd_sc_mcu7t5v0__or3_2 abstract view
.subckt gf180mcu_fd_sc_mcu7t5v0__or3_2 A1 A2 A3 Z VDD VNW VPW VSS
.ends

* Black-box entry subcircuit for gf180mcu_fd_sc_mcu7t5v0__oai22_2 abstract view
.subckt gf180mcu_fd_sc_mcu7t5v0__oai22_2 A1 A2 B1 B2 ZN VDD VNW VPW VSS
.ends

* Black-box entry subcircuit for gf180mcu_fd_sc_mcu7t5v0__nor2_2 abstract view
.subckt gf180mcu_fd_sc_mcu7t5v0__nor2_2 A1 A2 ZN VDD VNW VPW VSS
.ends

* Black-box entry subcircuit for gf180mcu_fd_sc_mcu7t5v0__mux2_2 abstract view
.subckt gf180mcu_fd_sc_mcu7t5v0__mux2_2 I0 I1 S Z VDD VNW VPW VSS
.ends

* Black-box entry subcircuit for gf180mcu_fd_sc_mcu7t5v0__oai21_2 abstract view
.subckt gf180mcu_fd_sc_mcu7t5v0__oai21_2 A1 A2 B ZN VDD VNW VPW VSS
.ends

* Black-box entry subcircuit for gf180mcu_fd_sc_mcu7t5v0__nor2_4 abstract view
.subckt gf180mcu_fd_sc_mcu7t5v0__nor2_4 A1 A2 ZN VDD VNW VPW VSS
.ends

* Black-box entry subcircuit for gf180mcu_fd_sc_mcu7t5v0__and3_1 abstract view
.subckt gf180mcu_fd_sc_mcu7t5v0__and3_1 A1 A2 A3 Z VDD VNW VPW VSS
.ends

* Black-box entry subcircuit for gf180mcu_fd_sc_mcu7t5v0__nand3_2 abstract view
.subckt gf180mcu_fd_sc_mcu7t5v0__nand3_2 A1 A2 A3 ZN VDD VNW VPW VSS
.ends

* Black-box entry subcircuit for gf180mcu_fd_sc_mcu7t5v0__buf_4 abstract view
.subckt gf180mcu_fd_sc_mcu7t5v0__buf_4 I Z VDD VNW VPW VSS
.ends

* Black-box entry subcircuit for gf180mcu_fd_sc_mcu7t5v0__clkbuf_16 abstract view
.subckt gf180mcu_fd_sc_mcu7t5v0__clkbuf_16 I Z VDD VNW VPW VSS
.ends

* Black-box entry subcircuit for gf180mcu_fd_sc_mcu7t5v0__nor4_4 abstract view
.subckt gf180mcu_fd_sc_mcu7t5v0__nor4_4 A1 A2 A3 A4 ZN VDD VNW VPW VSS
.ends

* Black-box entry subcircuit for gf180mcu_fd_sc_mcu7t5v0__nand4_4 abstract view
.subckt gf180mcu_fd_sc_mcu7t5v0__nand4_4 A1 A2 A3 A4 ZN VDD VNW VPW VSS
.ends

* Black-box entry subcircuit for gf180mcu_fd_sc_mcu7t5v0__clkbuf_3 abstract view
.subckt gf180mcu_fd_sc_mcu7t5v0__clkbuf_3 I Z VDD VNW VPW VSS
.ends

* Black-box entry subcircuit for gf180mcu_fd_sc_mcu7t5v0__nand4_2 abstract view
.subckt gf180mcu_fd_sc_mcu7t5v0__nand4_2 A1 A2 A3 A4 ZN VDD VNW VPW VSS
.ends

* Black-box entry subcircuit for gf180mcu_fd_sc_mcu7t5v0__aoi221_4 abstract view
.subckt gf180mcu_fd_sc_mcu7t5v0__aoi221_4 A1 A2 B1 B2 C ZN VDD VNW VPW VSS
.ends

* Black-box entry subcircuit for gf180mcu_fd_sc_mcu7t5v0__dffq_2 abstract view
.subckt gf180mcu_fd_sc_mcu7t5v0__dffq_2 D CLK Q VDD VNW VPW VSS
.ends

* Black-box entry subcircuit for gf180mcu_fd_sc_mcu7t5v0__aoi22_2 abstract view
.subckt gf180mcu_fd_sc_mcu7t5v0__aoi22_2 A1 A2 B1 B2 ZN VDD VNW VPW VSS
.ends

* Black-box entry subcircuit for gf180mcu_fd_sc_mcu7t5v0__nand4_1 abstract view
.subckt gf180mcu_fd_sc_mcu7t5v0__nand4_1 A1 A2 A3 A4 ZN VDD VNW VPW VSS
.ends

* Black-box entry subcircuit for gf180mcu_fd_sc_mcu7t5v0__nor4_2 abstract view
.subckt gf180mcu_fd_sc_mcu7t5v0__nor4_2 A1 A2 A3 A4 ZN VDD VNW VPW VSS
.ends

* Black-box entry subcircuit for gf180mcu_fd_sc_mcu7t5v0__oai22_1 abstract view
.subckt gf180mcu_fd_sc_mcu7t5v0__oai22_1 A1 A2 B1 B2 ZN VDD VNW VPW VSS
.ends

* Black-box entry subcircuit for gf180mcu_fd_sc_mcu7t5v0__fillcap_32 abstract view
.subckt gf180mcu_fd_sc_mcu7t5v0__fillcap_32 VDD VNW VPW VSS
.ends

* Black-box entry subcircuit for gf180mcu_fd_sc_mcu7t5v0__oai211_2 abstract view
.subckt gf180mcu_fd_sc_mcu7t5v0__oai211_2 A1 A2 B C ZN VDD VNW VPW VSS
.ends

* Black-box entry subcircuit for gf180mcu_fd_sc_mcu7t5v0__oai31_2 abstract view
.subckt gf180mcu_fd_sc_mcu7t5v0__oai31_2 A1 A2 A3 B ZN VDD VNW VPW VSS
.ends

* Black-box entry subcircuit for gf180mcu_fd_sc_mcu7t5v0__nor3_2 abstract view
.subckt gf180mcu_fd_sc_mcu7t5v0__nor3_2 A1 A2 A3 ZN VDD VNW VPW VSS
.ends

* Black-box entry subcircuit for gf180mcu_fd_sc_mcu7t5v0__oai32_4 abstract view
.subckt gf180mcu_fd_sc_mcu7t5v0__oai32_4 A1 A2 A3 B1 B2 ZN VDD VNW VPW VSS
.ends

* Black-box entry subcircuit for gf180mcu_fd_sc_mcu7t5v0__oai32_2 abstract view
.subckt gf180mcu_fd_sc_mcu7t5v0__oai32_2 A1 A2 A3 B1 B2 ZN VDD VNW VPW VSS
.ends

* Black-box entry subcircuit for gf180mcu_fd_sc_mcu7t5v0__nand3_4 abstract view
.subckt gf180mcu_fd_sc_mcu7t5v0__nand3_4 A1 A2 A3 ZN VDD VNW VPW VSS
.ends

* Black-box entry subcircuit for gf180mcu_fd_sc_mcu7t5v0__and2_2 abstract view
.subckt gf180mcu_fd_sc_mcu7t5v0__and2_2 A1 A2 Z VDD VNW VPW VSS
.ends

* Black-box entry subcircuit for gf180mcu_fd_sc_mcu7t5v0__nor3_1 abstract view
.subckt gf180mcu_fd_sc_mcu7t5v0__nor3_1 A1 A2 A3 ZN VDD VNW VPW VSS
.ends

* Black-box entry subcircuit for gf180mcu_fd_sc_mcu7t5v0__aoi22_4 abstract view
.subckt gf180mcu_fd_sc_mcu7t5v0__aoi22_4 A1 A2 B1 B2 ZN VDD VNW VPW VSS
.ends

* Black-box entry subcircuit for gf180mcu_fd_sc_mcu7t5v0__oai31_1 abstract view
.subckt gf180mcu_fd_sc_mcu7t5v0__oai31_1 A1 A2 A3 B ZN VDD VNW VPW VSS
.ends

* Black-box entry subcircuit for gf180mcu_fd_sc_mcu7t5v0__nor3_4 abstract view
.subckt gf180mcu_fd_sc_mcu7t5v0__nor3_4 A1 A2 A3 ZN VDD VNW VPW VSS
.ends

* Black-box entry subcircuit for gf180mcu_fd_sc_mcu7t5v0__inv_2 abstract view
.subckt gf180mcu_fd_sc_mcu7t5v0__inv_2 I ZN VDD VNW VPW VSS
.ends

* Black-box entry subcircuit for gf180mcu_fd_sc_mcu7t5v0__oai221_4 abstract view
.subckt gf180mcu_fd_sc_mcu7t5v0__oai221_4 A1 A2 B1 B2 C ZN VDD VNW VPW VSS
.ends

.subckt interp_tri clk vdd vss wb_clk_i wb_rst_i wbs_ack_o wbs_adr_i[2] wbs_adr_i[3]
+ wbs_cyc_i wbs_dat_i[0] wbs_dat_i[10] wbs_dat_i[11] wbs_dat_i[12] wbs_dat_i[13] wbs_dat_i[14]
+ wbs_dat_i[15] wbs_dat_i[16] wbs_dat_i[17] wbs_dat_i[18] wbs_dat_i[19] wbs_dat_i[1]
+ wbs_dat_i[20] wbs_dat_i[21] wbs_dat_i[22] wbs_dat_i[23] wbs_dat_i[24] wbs_dat_i[25]
+ wbs_dat_i[26] wbs_dat_i[27] wbs_dat_i[28] wbs_dat_i[29] wbs_dat_i[2] wbs_dat_i[30]
+ wbs_dat_i[31] wbs_dat_i[3] wbs_dat_i[4] wbs_dat_i[5] wbs_dat_i[6] wbs_dat_i[7] wbs_dat_i[8]
+ wbs_dat_i[9] wbs_sel_i[0] wbs_sel_i[1] wbs_sel_i[2] wbs_sel_i[3] wbs_stb_i wbs_we_i
+ x_end[0] x_end[1] x_end[2] x_end[3] x_end[4] x_end[5] x_end[6] x_end[7] x_start[0]
+ x_start[1] x_start[2] x_start[3] x_start[4] x_start[5] x_start[6] x_start[7] y[0]
+ y[1] y[2] y[3] y[4] y[5] y[6] y[7]
X_2106_ _1290_ _1291_ _1292_ _1293_ vdd vdd vss vss gf180mcu_fd_sc_mcu7t5v0__oai21_1
X_2037_ _1162_ _1168_ _1225_ vdd vdd vss vss gf180mcu_fd_sc_mcu7t5v0__nand2_1
XFILLER_0_9_466 vdd vdd vss vss gf180mcu_fd_sc_mcu7t5v0__fill_1
XFILLER_0_32_247 vdd vdd vss vss gf180mcu_fd_sc_mcu7t5v0__fillcap_8
XTAP_TAPCELL_ROW_9_159 vdd vss gf180mcu_fd_sc_mcu7t5v0__filltie
XFILLER_0_23_18 vdd vdd vss vss gf180mcu_fd_sc_mcu7t5v0__fill_2
XANTENNA_output37_I net37 vdd vdd vss vss gf180mcu_fd_sc_mcu7t5v0__antenna
Xrebuffer7 _0178_ net82 vdd vdd vss vss gf180mcu_fd_sc_mcu7t5v0__clkbuf_1
XANTENNA__1996__A2 _1184_ vdd vdd vss vss gf180mcu_fd_sc_mcu7t5v0__antenna
X_2724_ _0007_ clknet_1_0__leaf_clk net53 vdd vdd vss vss gf180mcu_fd_sc_mcu7t5v0__dffq_1
X_2655_ net21 _0500_ _0508_ vdd vdd vss vss gf180mcu_fd_sc_mcu7t5v0__nand2_1
X_1606_ _0731_ _0799_ vdd vdd vss vss gf180mcu_fd_sc_mcu7t5v0__clkinv_1
XTAP_TAPCELL_ROW_14_194 vdd vss gf180mcu_fd_sc_mcu7t5v0__filltie
X_2586_ _0334_ _0448_ _0456_ vdd vdd vss vss gf180mcu_fd_sc_mcu7t5v0__nand2_1
X_1537_ _0672_ _0609_ _0613_ _0728_ _0730_ vdd vdd vss vss gf180mcu_fd_sc_mcu7t5v0__aoi22_1
XFILLER_0_10_453 vdd vdd vss vss gf180mcu_fd_sc_mcu7t5v0__fill_2
X_1468_ _0651_ _0656_ _0659_ _0660_ _0661_ vdd vdd vss vss gf180mcu_fd_sc_mcu7t5v0__oai211_1
X_1399_ _0590_ _0591_ t_reg\[1\] _0592_ vdd vdd vss vss gf180mcu_fd_sc_mcu7t5v0__oai21_4
XFILLER_0_37_306 vdd vdd vss vss gf180mcu_fd_sc_mcu7t5v0__fillcap_4
XFILLER_0_18_18 vdd vdd vss vss gf180mcu_fd_sc_mcu7t5v0__fill_2
XANTENNA__1666__A1 _0713_ vdd vdd vss vss gf180mcu_fd_sc_mcu7t5v0__antenna
XANTENNA__1902__A2 _0633_ vdd vdd vss vss gf180mcu_fd_sc_mcu7t5v0__antenna
XANTENNA__2526__C _0410_ vdd vdd vss vss gf180mcu_fd_sc_mcu7t5v0__antenna
X_2440_ _0308_ _0330_ _0331_ vdd vdd vss vss gf180mcu_fd_sc_mcu7t5v0__xor2_1
XTAP_TAPCELL_ROW_11_175 vdd vss gf180mcu_fd_sc_mcu7t5v0__filltie
X_2371_ _0260_ _0222_ _0262_ _0263_ vdd vdd vss vss gf180mcu_fd_sc_mcu7t5v0__aoi21_1
XTAP_TAPCELL_ROW_19_231 vdd vss gf180mcu_fd_sc_mcu7t5v0__filltie
XFILLER_0_19_306 vdd vdd vss vss gf180mcu_fd_sc_mcu7t5v0__fill_2
XANTENNA__2082__A1 _1220_ vdd vdd vss vss gf180mcu_fd_sc_mcu7t5v0__antenna
XFILLER_0_19_328 vdd vdd vss vss gf180mcu_fd_sc_mcu7t5v0__fill_2
X_2707_ net19 _0531_ _0546_ vdd vdd vss vss gf180mcu_fd_sc_mcu7t5v0__nor2_1
X_2638_ _0494_ _0495_ _0491_ _0055_ vdd vdd vss vss gf180mcu_fd_sc_mcu7t5v0__aoi21_1
X_2569_ _0443_ _0445_ vdd vdd vss vss gf180mcu_fd_sc_mcu7t5v0__clkbuf_1
XANTENNA_input36_I y[7] vdd vdd vss vss gf180mcu_fd_sc_mcu7t5v0__antenna
XTAP_TAPCELL_ROW_2_110 vdd vss gf180mcu_fd_sc_mcu7t5v0__filltie
XFILLER_0_37_136 vdd vdd vss vss gf180mcu_fd_sc_mcu7t5v0__fill_2
XFILLER_0_37_169 vdd vdd vss vss gf180mcu_fd_sc_mcu7t5v0__fillcap_4
XFILLER_0_21_504 vdd vdd vss vss gf180mcu_fd_sc_mcu7t5v0__fillcap_4
XFILLER_0_18_350 vdd vdd vss vss gf180mcu_fd_sc_mcu7t5v0__fillcap_4
X_1940_ _1042_ _1128_ _1129_ vdd vdd vss vss gf180mcu_fd_sc_mcu7t5v0__nand2_1
X_1871_ _0971_ _0974_ _1061_ vdd vdd vss vss gf180mcu_fd_sc_mcu7t5v0__nor2_1
XFILLER_0_16_309 vdd vdd vss vss gf180mcu_fd_sc_mcu7t5v0__fill_1
XFILLER_0_24_342 vdd vdd vss vss gf180mcu_fd_sc_mcu7t5v0__fill_2
X_2423_ _0157_ _1136_ _0314_ vdd vdd vss vss gf180mcu_fd_sc_mcu7t5v0__nand2_1
X_2354_ _0897_ _0246_ _0247_ vdd vdd vss vss gf180mcu_fd_sc_mcu7t5v0__xor2_1
X_2285_ _0151_ _0155_ _0179_ vdd vdd vss vss gf180mcu_fd_sc_mcu7t5v0__nor2_1
XFILLER_0_42_172 vdd vdd vss vss gf180mcu_fd_sc_mcu7t5v0__fill_2
XTAP_TAPCELL_ROW_22_248 vdd vss gf180mcu_fd_sc_mcu7t5v0__filltie
XFILLER_0_30_356 vdd vdd vss vss gf180mcu_fd_sc_mcu7t5v0__fillcap_4
XANTENNA__2294__A1 _0080_ vdd vdd vss vss gf180mcu_fd_sc_mcu7t5v0__antenna
XFILLER_0_25_139 vdd vdd vss vss gf180mcu_fd_sc_mcu7t5v0__fill_1
XFILLER_0_40_109 vdd vdd vss vss gf180mcu_fd_sc_mcu7t5v0__fill_1
XFILLER_0_0_206 vdd vdd vss vss gf180mcu_fd_sc_mcu7t5v0__fill_2
X_2070_ _1200_ _1257_ _1258_ vdd vdd vss vss gf180mcu_fd_sc_mcu7t5v0__xor2_1
XFILLER_0_8_317 vdd vdd vss vss gf180mcu_fd_sc_mcu7t5v0__fillcap_8
X_1923_ _1028_ _1108_ _1112_ vdd vdd vss vss gf180mcu_fd_sc_mcu7t5v0__nand2_1
X_1785_ _0968_ _0975_ _0976_ vdd vdd vss vss gf180mcu_fd_sc_mcu7t5v0__xor2_1
X_1854_ _0924_ _0965_ _1044_ vdd vdd vss vss gf180mcu_fd_sc_mcu7t5v0__nand2_1
XFILLER_0_21_95 vdd vdd vss vss gf180mcu_fd_sc_mcu7t5v0__fill_2
XFILLER_0_12_312 vdd vdd vss vss gf180mcu_fd_sc_mcu7t5v0__fill_2
X_2406_ _0252_ _0291_ _0297_ vdd vdd vss vss gf180mcu_fd_sc_mcu7t5v0__and2_4
XFILLER_0_27_2 vdd vdd vss vss gf180mcu_fd_sc_mcu7t5v0__fillcap_4
X_2337_ _0174_ _0228_ _0229_ _0230_ vdd vdd vss vss gf180mcu_fd_sc_mcu7t5v0__xor3_1
X_2268_ _0156_ _0162_ _0163_ vdd vdd vss vss gf180mcu_fd_sc_mcu7t5v0__xor2_1
X_2199_ c\[0\]\[0\] _0094_ vdd vdd vss vss gf180mcu_fd_sc_mcu7t5v0__clkinv_2
XANTENNA__2733__CLK clknet_1_0__leaf_clk vdd vdd vss vss gf180mcu_fd_sc_mcu7t5v0__antenna
XANTENNA__2276__A1 _0713_ vdd vdd vss vss gf180mcu_fd_sc_mcu7t5v0__antenna
XFILLER_0_39_209 vdd vdd vss vss gf180mcu_fd_sc_mcu7t5v0__fill_1
XTAP_TAPCELL_ROW_35_340 vdd vss gf180mcu_fd_sc_mcu7t5v0__filltie
XFILLER_0_1_72 vdd vdd vss vss gf180mcu_fd_sc_mcu7t5v0__fill_2
XFILLER_0_22_109 vdd vdd vss vss gf180mcu_fd_sc_mcu7t5v0__fill_1
XANTENNA__2200__A1 _0094_ vdd vdd vss vss gf180mcu_fd_sc_mcu7t5v0__antenna
XFILLER_0_7_383 vdd vdd vss vss gf180mcu_fd_sc_mcu7t5v0__fill_2
XFILLER_0_15_150 vdd vdd vss vss gf180mcu_fd_sc_mcu7t5v0__fillcap_4
XFILLER_0_41_418 vdd vdd vss vss gf180mcu_fd_sc_mcu7t5v0__fill_2
XFILLER_0_21_142 vdd vdd vss vss gf180mcu_fd_sc_mcu7t5v0__fill_1
X_1570_ _0674_ _0761_ _0762_ _0763_ vdd vdd vss vss gf180mcu_fd_sc_mcu7t5v0__aoi21_2
X_2122_ _1196_ _1259_ _1308_ _1309_ vdd vdd vss vss gf180mcu_fd_sc_mcu7t5v0__oai21_1
X_2053_ _1224_ _1240_ _1241_ vdd vdd vss vss gf180mcu_fd_sc_mcu7t5v0__xnor2_1
Xrebuffer17 _0802_ net92 vdd vdd vss vss gf180mcu_fd_sc_mcu7t5v0__clkbuf_1
XPHY_EDGE_ROW_16_Left_59 vdd vss gf180mcu_fd_sc_mcu7t5v0__endcap
XTAP_TAPCELL_ROW_32_321 vdd vss gf180mcu_fd_sc_mcu7t5v0__filltie
XFILLER_0_29_297 vdd vdd vss vss gf180mcu_fd_sc_mcu7t5v0__fill_2
XFILLER_0_16_73 vdd vdd vss vss gf180mcu_fd_sc_mcu7t5v0__fill_2
X_1837_ _0673_ _1024_ _1027_ vdd vdd vss vss gf180mcu_fd_sc_mcu7t5v0__nand2_1
X_1768_ _0919_ _0940_ _0959_ vdd vdd vss vss gf180mcu_fd_sc_mcu7t5v0__nor2_1
XFILLER_0_25_470 vdd vdd vss vss gf180mcu_fd_sc_mcu7t5v0__fill_2
X_1906_ _1088_ _1095_ _1096_ vdd vdd vss vss gf180mcu_fd_sc_mcu7t5v0__xor2_1
XFILLER_0_12_131 vdd vdd vss vss gf180mcu_fd_sc_mcu7t5v0__fill_2
XFILLER_0_12_164 vdd vdd vss vss gf180mcu_fd_sc_mcu7t5v0__fill_1
X_1699_ _0811_ _0825_ _0891_ vdd vdd vss vss gf180mcu_fd_sc_mcu7t5v0__nand2_1
XFILLER_0_35_278 vdd vdd vss vss gf180mcu_fd_sc_mcu7t5v0__fill_2
XFILLER_0_35_212 vdd vdd vss vss gf180mcu_fd_sc_mcu7t5v0__fillcap_4
Xoutput53 net53 x_start[7] vdd vdd vss vss gf180mcu_fd_sc_mcu7t5v0__buf_3
Xoutput42 net42 x_end[4] vdd vdd vss vss gf180mcu_fd_sc_mcu7t5v0__buf_3
XFILLER_0_41_248 vdd vdd vss vss gf180mcu_fd_sc_mcu7t5v0__fill_2
XFILLER_0_26_267 vdd vdd vss vss gf180mcu_fd_sc_mcu7t5v0__fill_1
X_2671_ net10 _0510_ _0520_ vdd vdd vss vss gf180mcu_fd_sc_mcu7t5v0__nand2_1
XFILLER_0_1_323 vdd vdd vss vss gf180mcu_fd_sc_mcu7t5v0__fill_2
X_2740_ _0023_ clknet_1_0__leaf_clk t_reg\[7\] vdd vdd vss vss gf180mcu_fd_sc_mcu7t5v0__dffq_1
X_1622_ delta_t\[9\] _0754_ _0815_ vdd vdd vss vss gf180mcu_fd_sc_mcu7t5v0__nand2_2
X_1553_ _0744_ _0745_ _0746_ vdd vdd vss vss gf180mcu_fd_sc_mcu7t5v0__and2_1
X_1484_ _0621_ _0675_ _0676_ _0677_ vdd vdd vss vss gf180mcu_fd_sc_mcu7t5v0__aoi21_2
XANTENNA__2191__A3 _0655_ vdd vdd vss vss gf180mcu_fd_sc_mcu7t5v0__antenna
X_2105_ _1243_ _1245_ _1292_ vdd vdd vss vss gf180mcu_fd_sc_mcu7t5v0__or2_1
XFILLER_0_27_72 vdd vdd vss vss gf180mcu_fd_sc_mcu7t5v0__fillcap_4
X_2036_ _1174_ _1175_ _1223_ _1224_ vdd vdd vss vss gf180mcu_fd_sc_mcu7t5v0__oai21_1
XANTENNA__2403__A1 _0293_ vdd vdd vss vss gf180mcu_fd_sc_mcu7t5v0__antenna
XFILLER_0_17_201 vdd vdd vss vss gf180mcu_fd_sc_mcu7t5v0__fill_2
XFILLER_0_17_245 vdd vdd vss vss gf180mcu_fd_sc_mcu7t5v0__fill_1
XFILLER_0_13_484 vdd vdd vss vss gf180mcu_fd_sc_mcu7t5v0__fill_1
Xrebuffer8 _0599_ net83 vdd vdd vss vss gf180mcu_fd_sc_mcu7t5v0__buf_2
X_2723_ _0006_ clknet_1_1__leaf_clk net52 vdd vdd vss vss gf180mcu_fd_sc_mcu7t5v0__dffq_1
XFILLER_0_6_415 vdd vdd vss vss gf180mcu_fd_sc_mcu7t5v0__fill_1
XTAP_TAPCELL_ROW_14_195 vdd vss gf180mcu_fd_sc_mcu7t5v0__filltie
X_2654_ _1181_ _0498_ _0507_ vdd vdd vss vss gf180mcu_fd_sc_mcu7t5v0__nand2_1
X_1536_ _0728_ _0672_ _0608_ _0613_ _0729_ vdd vdd vss vss gf180mcu_fd_sc_mcu7t5v0__and4_1
X_1605_ _0726_ _0796_ net84 _0798_ vdd vdd vss vss gf180mcu_fd_sc_mcu7t5v0__aoi21_2
X_2585_ _0296_ _0448_ _0455_ _0453_ _0042_ vdd vdd vss vss gf180mcu_fd_sc_mcu7t5v0__aoi211_1
X_1398_ _0570_ _0572_ _0575_ _0577_ _0591_ vdd vdd vss vss gf180mcu_fd_sc_mcu7t5v0__or4_4
XFILLER_0_38_93 vdd vdd vss vss gf180mcu_fd_sc_mcu7t5v0__fill_2
X_1467_ _0645_ _0660_ vdd vdd vss vss gf180mcu_fd_sc_mcu7t5v0__buf_1
X_2019_ _1147_ _1206_ _1207_ vdd vdd vss vss gf180mcu_fd_sc_mcu7t5v0__nor2_1
XPHY_EDGE_ROW_19_Left_62 vdd vss gf180mcu_fd_sc_mcu7t5v0__endcap
XFILLER_0_5_492 vdd vdd vss vss gf180mcu_fd_sc_mcu7t5v0__fill_2
XTAP_TAPCELL_ROW_5_130 vdd vss gf180mcu_fd_sc_mcu7t5v0__filltie
XFILLER_0_34_18 vdd vdd vss vss gf180mcu_fd_sc_mcu7t5v0__fill_1
XANTENNA__1666__A2 _0858_ vdd vdd vss vss gf180mcu_fd_sc_mcu7t5v0__antenna
XANTENNA__2615__A1 net13 vdd vdd vss vss gf180mcu_fd_sc_mcu7t5v0__antenna
XANTENNA__2091__A2 _1184_ vdd vdd vss vss gf180mcu_fd_sc_mcu7t5v0__antenna
XFILLER_0_36_384 vdd vdd vss vss gf180mcu_fd_sc_mcu7t5v0__fill_1
XFILLER_0_36_373 vdd vdd vss vss gf180mcu_fd_sc_mcu7t5v0__fill_2
XTAP_TAPCELL_ROW_11_176 vdd vss gf180mcu_fd_sc_mcu7t5v0__filltie
X_2370_ _0099_ _0080_ _1130_ _0262_ vdd vdd vss vss gf180mcu_fd_sc_mcu7t5v0__oai21_1
XFILLER_0_24_73 vdd vdd vss vss gf180mcu_fd_sc_mcu7t5v0__fill_2
XTAP_TAPCELL_ROW_19_232 vdd vss gf180mcu_fd_sc_mcu7t5v0__filltie
XFILLER_0_27_373 vdd vdd vss vss gf180mcu_fd_sc_mcu7t5v0__fillcap_4
X_2706_ _0544_ _0545_ _0540_ _0073_ vdd vdd vss vss gf180mcu_fd_sc_mcu7t5v0__aoi21_1
XFILLER_0_24_95 vdd vdd vss vss gf180mcu_fd_sc_mcu7t5v0__fill_2
XFILLER_0_42_376 vdd vdd vss vss gf180mcu_fd_sc_mcu7t5v0__fill_2
X_2499_ _0363_ _0388_ vdd vdd vss vss gf180mcu_fd_sc_mcu7t5v0__clkinv_1
X_2637_ net16 _0489_ _0495_ vdd vdd vss vss gf180mcu_fd_sc_mcu7t5v0__nand2_1
X_1519_ _0637_ _0662_ _0712_ vdd vdd vss vss gf180mcu_fd_sc_mcu7t5v0__nand2_1
XPHY_EDGE_ROW_12_Right_12 vdd vss gf180mcu_fd_sc_mcu7t5v0__endcap
X_2568_ _0443_ _0444_ vdd vdd vss vss gf180mcu_fd_sc_mcu7t5v0__buf_1
XANTENNA_input29_I y[0] vdd vdd vss vss gf180mcu_fd_sc_mcu7t5v0__antenna
XPHY_EDGE_ROW_21_Right_21 vdd vss gf180mcu_fd_sc_mcu7t5v0__endcap
XTAP_TAPCELL_ROW_2_111 vdd vss gf180mcu_fd_sc_mcu7t5v0__filltie
XTAP_TAPCELL_ROW_25_268 vdd vss gf180mcu_fd_sc_mcu7t5v0__filltie
XPHY_EDGE_ROW_4_Left_47 vdd vss gf180mcu_fd_sc_mcu7t5v0__endcap
XFILLER_0_33_398 vdd vdd vss vss gf180mcu_fd_sc_mcu7t5v0__fill_2
XFILLER_0_33_332 vdd vdd vss vss gf180mcu_fd_sc_mcu7t5v0__fillcap_4
XPHY_EDGE_ROW_30_Right_30 vdd vss gf180mcu_fd_sc_mcu7t5v0__endcap
XFILLER_0_0_19 vdd vdd vss vss gf180mcu_fd_sc_mcu7t5v0__fillcap_8
X_1870_ _0971_ _0974_ _1060_ vdd vdd vss vss gf180mcu_fd_sc_mcu7t5v0__nand2_1
XFILLER_0_24_332 vdd vdd vss vss gf180mcu_fd_sc_mcu7t5v0__fill_2
X_2353_ _0208_ _0245_ _0246_ vdd vdd vss vss gf180mcu_fd_sc_mcu7t5v0__xnor2_1
X_2422_ _0261_ _0312_ _0313_ vdd vdd vss vss gf180mcu_fd_sc_mcu7t5v0__and2_1
XFILLER_0_24_376 vdd vdd vss vss gf180mcu_fd_sc_mcu7t5v0__fillcap_4
X_2284_ _0879_ _0983_ _0177_ _0178_ vdd vdd vss vss gf180mcu_fd_sc_mcu7t5v0__xor3_2
XFILLER_0_19_51 vdd vdd vss vss gf180mcu_fd_sc_mcu7t5v0__fill_2
XTAP_TAPCELL_ROW_0_90 vdd vss gf180mcu_fd_sc_mcu7t5v0__filltie
XFILLER_0_35_72 vdd vdd vss vss gf180mcu_fd_sc_mcu7t5v0__fill_2
XANTENNA__2055__A2 _1184_ vdd vdd vss vss gf180mcu_fd_sc_mcu7t5v0__antenna
XFILLER_0_34_107 vdd vdd vss vss gf180mcu_fd_sc_mcu7t5v0__fill_2
XTAP_TAPCELL_ROW_22_249 vdd vss gf180mcu_fd_sc_mcu7t5v0__filltie
X_1999_ _1144_ _1147_ _1187_ _1188_ vdd vdd vss vss gf180mcu_fd_sc_mcu7t5v0__xnor3_2
XFILLER_0_30_302 vdd vdd vss vss gf180mcu_fd_sc_mcu7t5v0__fill_2
XFILLER_0_15_343 vdd vdd vss vss gf180mcu_fd_sc_mcu7t5v0__fillcap_4
XFILLER_0_15_398 vdd vdd vss vss gf180mcu_fd_sc_mcu7t5v0__fill_1
XTAP_TAPCELL_ROW_38_360 vdd vss gf180mcu_fd_sc_mcu7t5v0__filltie
XFILLER_0_38_457 vdd vdd vss vss gf180mcu_fd_sc_mcu7t5v0__fill_2
XFILLER_0_25_118 vdd vdd vss vss gf180mcu_fd_sc_mcu7t5v0__fill_2
XFILLER_0_21_357 vdd vdd vss vss gf180mcu_fd_sc_mcu7t5v0__fill_1
X_1922_ _1029_ _1110_ _1111_ vdd vdd vss vss gf180mcu_fd_sc_mcu7t5v0__nand2_1
XFILLER_0_8_329 vdd vdd vss vss gf180mcu_fd_sc_mcu7t5v0__fill_1
X_1853_ _0968_ _0975_ _1042_ _1043_ vdd vdd vss vss gf180mcu_fd_sc_mcu7t5v0__oai21_1
X_1784_ _0970_ _0971_ _0974_ _0975_ vdd vdd vss vss gf180mcu_fd_sc_mcu7t5v0__xnor3_1
XFILLER_0_24_162 vdd vdd vss vss gf180mcu_fd_sc_mcu7t5v0__fillcap_4
XFILLER_0_21_74 vdd vdd vss vss gf180mcu_fd_sc_mcu7t5v0__fill_1
XFILLER_0_21_41 vdd vdd vss vss gf180mcu_fd_sc_mcu7t5v0__fill_2
XFILLER_0_16_107 vdd vdd vss vss gf180mcu_fd_sc_mcu7t5v0__fillcap_4
XFILLER_0_16_118 vdd vdd vss vss gf180mcu_fd_sc_mcu7t5v0__fill_1
X_2405_ _1113_ _0296_ vdd vdd vss vss gf180mcu_fd_sc_mcu7t5v0__inv_1
X_2336_ _0122_ _1047_ _0229_ vdd vdd vss vss gf180mcu_fd_sc_mcu7t5v0__nand2_1
X_2267_ _0158_ _0161_ _0162_ vdd vdd vss vss gf180mcu_fd_sc_mcu7t5v0__xnor2_1
X_2198_ _0079_ _0081_ _0093_ vdd vdd vss vss gf180mcu_fd_sc_mcu7t5v0__or2_1
XANTENNA__2276__A2 _0166_ vdd vdd vss vss gf180mcu_fd_sc_mcu7t5v0__antenna
XTAP_TAPCELL_ROW_35_341 vdd vss gf180mcu_fd_sc_mcu7t5v0__filltie
XPHY_EDGE_ROW_7_Left_50 vdd vss gf180mcu_fd_sc_mcu7t5v0__endcap
XFILLER_0_21_176 vdd vdd vss vss gf180mcu_fd_sc_mcu7t5v0__fill_2
X_2121_ _1197_ _1258_ _1308_ vdd vdd vss vss gf180mcu_fd_sc_mcu7t5v0__nand2_1
Xrebuffer18 _0735_ net93 vdd vdd vss vss gf180mcu_fd_sc_mcu7t5v0__dlya_2
XANTENNA__1702__A1 a\[0\]\[5\] vdd vdd vss vss gf180mcu_fd_sc_mcu7t5v0__antenna
X_2052_ _1226_ _1239_ _1240_ vdd vdd vss vss gf180mcu_fd_sc_mcu7t5v0__xor2_1
XTAP_TAPCELL_ROW_32_322 vdd vss gf180mcu_fd_sc_mcu7t5v0__filltie
XFILLER_0_29_232 vdd vdd vss vss gf180mcu_fd_sc_mcu7t5v0__fill_1
X_1905_ _1093_ _1094_ _1095_ vdd vdd vss vss gf180mcu_fd_sc_mcu7t5v0__xor2_1
XFILLER_0_17_405 vdd vdd vss vss gf180mcu_fd_sc_mcu7t5v0__fill_1
XFILLER_0_40_452 vdd vdd vss vss gf180mcu_fd_sc_mcu7t5v0__fill_2
X_1836_ _1026_ _0011_ vdd vdd vss vss gf180mcu_fd_sc_mcu7t5v0__clkbuf_1
X_1767_ _0877_ _0916_ _0958_ vdd vdd vss vss gf180mcu_fd_sc_mcu7t5v0__xnor2_1
XFILLER_0_4_321 vdd vdd vss vss gf180mcu_fd_sc_mcu7t5v0__fill_1
XPHY_EDGE_ROW_6_Right_6 vdd vss gf180mcu_fd_sc_mcu7t5v0__endcap
X_1698_ _0887_ _0889_ _0890_ vdd vdd vss vss gf180mcu_fd_sc_mcu7t5v0__xnor2_1
X_2319_ _0171_ _0210_ _0211_ _0212_ vdd vdd vss vss gf180mcu_fd_sc_mcu7t5v0__aoi21_2
XANTENNA_input11_I wbs_dat_i[1] vdd vdd vss vss gf180mcu_fd_sc_mcu7t5v0__antenna
XFILLER_0_35_235 vdd vdd vss vss gf180mcu_fd_sc_mcu7t5v0__fill_2
Xoutput43 net43 x_end[5] vdd vdd vss vss gf180mcu_fd_sc_mcu7t5v0__buf_3
XPHY_EDGE_ROW_33_Left_76 vdd vss gf180mcu_fd_sc_mcu7t5v0__endcap
XFILLER_0_31_463 vdd vdd vss vss gf180mcu_fd_sc_mcu7t5v0__fillcap_4
XANTENNA__1781__I _0695_ vdd vdd vss vss gf180mcu_fd_sc_mcu7t5v0__antenna
XFILLER_0_41_216 vdd vdd vss vss gf180mcu_fd_sc_mcu7t5v0__fill_1
XANTENNA__2723__CLK clknet_1_1__leaf_clk vdd vdd vss vss gf180mcu_fd_sc_mcu7t5v0__antenna
X_2670_ b\[1\]\[3\] _0513_ _0519_ vdd vdd vss vss gf180mcu_fd_sc_mcu7t5v0__nand2_1
X_1552_ _0681_ _0745_ vdd vdd vss vss gf180mcu_fd_sc_mcu7t5v0__clkbuf_1
X_1621_ _0584_ _0814_ vdd vdd vss vss gf180mcu_fd_sc_mcu7t5v0__buf_2
X_2104_ _1243_ _1245_ _1291_ vdd vdd vss vss gf180mcu_fd_sc_mcu7t5v0__and2_1
XANTENNA_input3_I wbs_adr_i[2] vdd vdd vss vss gf180mcu_fd_sc_mcu7t5v0__antenna
X_1483_ _0634_ _0635_ _0676_ vdd vdd vss vss gf180mcu_fd_sc_mcu7t5v0__nor2_1
X_2035_ _1155_ _0934_ _1172_ _1223_ vdd vdd vss vss gf180mcu_fd_sc_mcu7t5v0__nand3_1
XFILLER_0_9_435 vdd vdd vss vss gf180mcu_fd_sc_mcu7t5v0__fillcap_4
X_1819_ _0838_ _0839_ _0807_ _0552_ _1010_ vdd vdd vss vss gf180mcu_fd_sc_mcu7t5v0__aoi211_2
XFILLER_0_23_216 vdd vdd vss vss gf180mcu_fd_sc_mcu7t5v0__fill_1
Xrebuffer9 _0797_ net84 vdd vdd vss vss gf180mcu_fd_sc_mcu7t5v0__clkbuf_1
XFILLER_0_31_282 vdd vdd vss vss gf180mcu_fd_sc_mcu7t5v0__fillcap_4
XTAP_TAPCELL_ROW_8_150 vdd vss gf180mcu_fd_sc_mcu7t5v0__filltie
XANTENNA__2633__A2 _0486_ vdd vdd vss vss gf180mcu_fd_sc_mcu7t5v0__antenna
X_2722_ _0005_ clknet_1_1__leaf_clk net51 vdd vdd vss vss gf180mcu_fd_sc_mcu7t5v0__dffq_1
XTAP_TAPCELL_ROW_14_196 vdd vss gf180mcu_fd_sc_mcu7t5v0__filltie
X_2653_ _0505_ _0506_ _0502_ _0059_ vdd vdd vss vss gf180mcu_fd_sc_mcu7t5v0__aoi21_1
XFILLER_0_22_293 vdd vdd vss vss gf180mcu_fd_sc_mcu7t5v0__fill_2
X_2584_ net19 _0443_ _0455_ vdd vdd vss vss gf180mcu_fd_sc_mcu7t5v0__nor2_1
X_1604_ _0760_ _0763_ _0797_ vdd vdd vss vss gf180mcu_fd_sc_mcu7t5v0__nor2_1