*SPEF "ieee 1481-1999"
*DESIGN "tjrpu"
*DATE "11:11:11 Fri 11 11, 1111"
*VENDOR "OpenRCX"
*PROGRAM "Parallel Extraction"
*VERSION "1.0"
*DESIGN_FLOW "NAME_SCOPE LOCAL" "PIN_CAP NONE"
*DIVIDER /
*DELIMITER :
*BUS_DELIMITER []
*T_UNIT 1 NS
*C_UNIT 1 PF
*R_UNIT 1 OHM
*L_UNIT 1 HENRY

*NAME_MAP
*1 io_in[0]
*2 io_in[10]
*3 io_in[11]
*4 io_in[12]
*5 io_in[13]
*6 io_in[14]
*7 io_in[15]
*8 io_in[1]
*9 io_in[2]
*10 io_in[3]
*11 io_in[4]
*12 io_in[5]
*13 io_in[6]
*14 io_in[7]
*15 io_in[8]
*16 io_in[9]
*17 io_oeb[0]
*18 io_oeb[10]
*19 io_oeb[11]
*20 io_oeb[12]
*21 io_oeb[13]
*22 io_oeb[14]
*23 io_oeb[15]
*24 io_oeb[1]
*25 io_oeb[2]
*26 io_oeb[3]
*27 io_oeb[4]
*28 io_oeb[5]
*29 io_oeb[6]
*30 io_oeb[7]
*31 io_oeb[8]
*32 io_oeb[9]
*33 io_out[0]
*34 io_out[10]
*35 io_out[11]
*36 io_out[12]
*37 io_out[13]
*38 io_out[14]
*39 io_out[15]
*40 io_out[1]
*41 io_out[2]
*42 io_out[3]
*43 io_out[4]
*44 io_out[5]
*45 io_out[6]
*46 io_out[7]
*47 io_out[8]
*48 io_out[9]
*49 net208
*50 net209
*51 net210
*52 la_data_in[0]
*53 la_data_in[10]
*54 la_data_in[11]
*55 la_data_in[12]
*56 la_data_in[13]
*57 la_data_in[14]
*58 la_data_in[15]
*59 la_data_in[16]
*60 la_data_in[17]
*61 la_data_in[18]
*62 la_data_in[19]
*63 la_data_in[1]
*64 la_data_in[20]
*65 la_data_in[21]
*66 la_data_in[22]
*67 la_data_in[23]
*68 la_data_in[24]
*69 la_data_in[25]
*70 la_data_in[26]
*71 la_data_in[27]
*72 la_data_in[28]
*73 la_data_in[29]
*74 la_data_in[2]
*75 la_data_in[30]
*76 la_data_in[31]
*77 la_data_in[32]
*78 la_data_in[33]
*79 la_data_in[34]
*80 la_data_in[35]
*81 la_data_in[36]
*82 la_data_in[37]
*83 la_data_in[38]
*84 la_data_in[39]
*85 la_data_in[3]
*86 la_data_in[40]
*87 la_data_in[41]
*88 la_data_in[42]
*89 la_data_in[43]
*90 la_data_in[44]
*91 la_data_in[45]
*92 la_data_in[46]
*93 la_data_in[47]
*94 la_data_in[48]
*95 la_data_in[49]
*96 la_data_in[4]
*97 la_data_in[50]
*98 la_data_in[51]
*99 la_data_in[52]
*100 la_data_in[53]
*101 la_data_in[54]
*102 la_data_in[55]
*103 la_data_in[56]
*104 la_data_in[57]
*105 la_data_in[58]
*106 la_data_in[59]
*107 la_data_in[5]
*108 la_data_in[60]
*109 la_data_in[61]
*110 la_data_in[62]
*111 la_data_in[63]
*112 la_data_in[6]
*113 la_data_in[7]
*114 la_data_in[8]
*115 la_data_in[9]
*116 la_data_out[0]
*117 la_data_out[10]
*118 la_data_out[11]
*119 la_data_out[12]
*120 la_data_out[13]
*121 la_data_out[14]
*122 la_data_out[15]
*123 net211
*124 net212
*125 net213
*126 net147
*127 la_data_out[1]
*128 net148
*129 net149
*130 net150
*131 net151
*132 net152
*133 net153
*134 net154
*135 net155
*136 net156
*137 net157
*138 la_data_out[2]
*139 net158
*140 net159
*141 net160
*142 net161
*143 net162
*144 net163
*145 net164
*146 net165
*147 net166
*148 net167
*149 la_data_out[3]
*150 net168
*151 net169
*152 net170
*153 net171
*154 net172
*155 net173
*156 net174
*157 net175
*158 net176
*159 net177
*160 la_data_out[4]
*161 net178
*162 net179
*163 net180
*164 net181
*165 net182
*166 net183
*167 net184
*168 net185
*169 net186
*170 net187
*171 la_data_out[5]
*172 net188
*173 net189
*174 net190
*175 net191
*176 la_data_out[6]
*177 la_data_out[7]
*178 la_data_out[8]
*179 la_data_out[9]
*180 la_oenb[0]
*181 la_oenb[10]
*182 la_oenb[11]
*183 la_oenb[12]
*184 la_oenb[13]
*185 la_oenb[14]
*186 la_oenb[15]
*187 la_oenb[16]
*188 la_oenb[17]
*189 la_oenb[18]
*190 la_oenb[19]
*191 la_oenb[1]
*192 la_oenb[20]
*193 la_oenb[21]
*194 la_oenb[22]
*195 la_oenb[23]
*196 la_oenb[24]
*197 la_oenb[25]
*198 la_oenb[26]
*199 la_oenb[27]
*200 la_oenb[28]
*201 la_oenb[29]
*202 la_oenb[2]
*203 la_oenb[30]
*204 la_oenb[31]
*205 la_oenb[32]
*206 la_oenb[33]
*207 la_oenb[34]
*208 la_oenb[35]
*209 la_oenb[36]
*210 la_oenb[37]
*211 la_oenb[38]
*212 la_oenb[39]
*213 la_oenb[3]
*214 la_oenb[40]
*215 la_oenb[41]
*216 la_oenb[42]
*217 la_oenb[43]
*218 la_oenb[44]
*219 la_oenb[45]
*220 la_oenb[46]
*221 la_oenb[47]
*222 la_oenb[48]
*223 la_oenb[49]
*224 la_oenb[4]
*225 la_oenb[50]
*226 la_oenb[51]
*227 la_oenb[52]
*228 la_oenb[53]
*229 la_oenb[54]
*230 la_oenb[55]
*231 la_oenb[56]
*232 la_oenb[57]
*233 la_oenb[58]
*234 la_oenb[59]
*235 la_oenb[5]
*236 la_oenb[60]
*237 la_oenb[61]
*238 la_oenb[62]
*239 la_oenb[63]
*240 la_oenb[6]
*241 la_oenb[7]
*242 la_oenb[8]
*243 la_oenb[9]
*246 wb_clk_i
*247 wb_rst_i
*248 wbs_ack_o
*249 wbs_adr_i[0]
*250 wbs_adr_i[10]
*251 wbs_adr_i[11]
*252 wbs_adr_i[12]
*253 wbs_adr_i[13]
*254 wbs_adr_i[14]
*255 wbs_adr_i[15]
*256 wbs_adr_i[16]
*257 wbs_adr_i[17]
*258 wbs_adr_i[18]
*259 wbs_adr_i[19]
*260 wbs_adr_i[1]
*261 wbs_adr_i[20]
*262 wbs_adr_i[21]
*263 wbs_adr_i[22]
*264 wbs_adr_i[23]
*265 wbs_adr_i[24]
*266 wbs_adr_i[25]
*267 wbs_adr_i[26]
*268 wbs_adr_i[27]
*269 wbs_adr_i[28]
*270 wbs_adr_i[29]
*271 wbs_adr_i[2]
*272 wbs_adr_i[30]
*273 wbs_adr_i[31]
*274 wbs_adr_i[3]
*275 wbs_adr_i[4]
*276 wbs_adr_i[5]
*277 wbs_adr_i[6]
*278 wbs_adr_i[7]
*279 wbs_adr_i[8]
*280 wbs_adr_i[9]
*281 wbs_cyc_i
*282 wbs_dat_i[0]
*283 wbs_dat_i[10]
*284 wbs_dat_i[11]
*285 wbs_dat_i[12]
*286 wbs_dat_i[13]
*287 wbs_dat_i[14]
*288 wbs_dat_i[15]
*289 wbs_dat_i[16]
*290 wbs_dat_i[17]
*291 wbs_dat_i[18]
*292 wbs_dat_i[19]
*293 wbs_dat_i[1]
*294 wbs_dat_i[20]
*295 wbs_dat_i[21]
*296 wbs_dat_i[22]
*297 wbs_dat_i[23]
*298 wbs_dat_i[24]
*299 wbs_dat_i[25]
*300 wbs_dat_i[26]
*301 wbs_dat_i[27]
*302 wbs_dat_i[28]
*303 wbs_dat_i[29]
*304 wbs_dat_i[2]
*305 wbs_dat_i[30]
*306 wbs_dat_i[31]
*307 wbs_dat_i[3]
*308 wbs_dat_i[4]
*309 wbs_dat_i[5]
*310 wbs_dat_i[6]
*311 wbs_dat_i[7]
*312 wbs_dat_i[8]
*313 wbs_dat_i[9]
*314 wbs_dat_o[0]
*315 wbs_dat_o[10]
*316 wbs_dat_o[11]
*317 wbs_dat_o[12]
*318 wbs_dat_o[13]
*319 wbs_dat_o[14]
*320 wbs_dat_o[15]
*321 net192
*322 net193
*323 net194
*324 net195
*325 wbs_dat_o[1]
*326 net196
*327 net197
*328 net198
*329 net199
*330 net200
*331 net201
*332 net202
*333 net203
*334 net204
*335 net205
*336 wbs_dat_o[2]
*337 net206
*338 net207
*339 wbs_dat_o[3]
*340 wbs_dat_o[4]
*341 wbs_dat_o[5]
*342 wbs_dat_o[6]
*343 wbs_dat_o[7]
*344 wbs_dat_o[8]
*345 wbs_dat_o[9]
*346 wbs_sel_i[0]
*347 wbs_sel_i[1]
*348 wbs_sel_i[2]
*349 wbs_sel_i[3]
*350 wbs_stb_i
*351 wbs_we_i
*352 _000_
*353 _001_
*354 _002_
*355 _003_
*356 _004_
*357 _005_
*358 _006_
*359 _007_
*360 _008_
*361 _009_
*362 _010_
*363 _011_
*364 _012_
*365 _013_
*366 _014_
*367 _015_
*368 _016_
*369 _017_
*370 _018_
*371 _019_
*372 _020_
*373 _021_
*374 _022_
*375 _023_
*376 _024_
*377 _025_
*378 _026_
*379 _027_
*380 _028_
*381 _029_
*382 _030_
*383 _031_
*384 _032_
*385 _033_
*386 _034_
*387 _035_
*388 _036_
*389 _037_
*390 _038_
*391 _039_
*392 _040_
*393 _041_
*394 _042_
*395 _043_
*396 _044_
*397 _045_
*398 _046_
*399 _047_
*400 _048_
*401 _049_
*402 _050_
*403 _051_
*404 _052_
*405 _053_
*406 _054_
*407 _055_
*408 _056_
*409 _057_
*410 _058_
*411 _059_
*412 _060_
*413 _061_
*414 _062_
*415 _063_
*416 _064_
*417 _065_
*418 _066_
*419 _067_
*420 _068_
*421 _069_
*422 _070_
*423 _071_
*424 _072_
*425 _073_
*426 _074_
*427 _075_
*428 _076_
*429 _077_
*430 _078_
*431 _079_
*432 _080_
*433 _081_
*434 _082_
*435 _083_
*436 _084_
*437 _085_
*438 _086_
*439 _087_
*440 _088_
*441 _089_
*442 _090_
*443 _091_
*444 _092_
*445 _093_
*446 _094_
*447 _095_
*448 _096_
*449 _097_
*450 _098_
*451 _099_
*452 _100_
*453 _101_
*454 _102_
*455 _103_
*456 _104_
*457 _105_
*458 _106_
*459 _107_
*460 _108_
*461 _109_
*462 _110_
*463 _111_
*464 _112_
*465 _113_
*466 _114_
*467 _115_
*468 _116_
*469 _117_
*470 _118_
*471 _119_
*472 _120_
*473 _121_
*474 _122_
*475 _123_
*476 _124_
*477 _125_
*478 _126_
*479 _127_
*480 _128_
*481 _129_
*482 _130_
*483 _131_
*484 _132_
*485 _133_
*486 _134_
*487 _135_
*488 _136_
*489 _137_
*490 _138_
*491 _139_
*492 _140_
*493 _141_
*494 _142_
*495 _143_
*496 _144_
*497 _145_
*498 _146_
*499 _147_
*500 _148_
*501 _149_
*502 _150_
*503 _151_
*504 _152_
*505 _153_
*506 _154_
*507 _155_
*508 _156_
*509 _157_
*510 _158_
*511 _159_
*512 _160_
*513 _161_
*514 _162_
*515 _163_
*516 _164_
*517 _165_
*518 _166_
*519 _167_
*520 _168_
*521 _169_
*522 clknet_0_counter\.clk
*523 clknet_2_0__leaf_counter\.clk
*524 clknet_2_1__leaf_counter\.clk
*525 clknet_2_2__leaf_counter\.clk
*526 clknet_2_3__leaf_counter\.clk
*527 counter\.clk
*528 net1
*529 net10
*530 net100
*531 net101
*532 net102
*533 net103
*534 net104
*535 net105
*536 net106
*537 net107
*538 net108
*539 net109
*540 net11
*541 net110
*542 net111
*543 net112
*544 net113
*545 net114
*546 net115
*547 net116
*548 net117
*549 net118
*550 net119
*551 net12
*552 net120
*553 net121
*554 net122
*555 net123
*556 net124
*557 net125
*558 net126
*559 net127
*560 net128
*561 net129
*562 net13
*563 net130
*564 net131
*565 net132
*566 net133
*567 net134
*568 net135
*569 net136
*570 net137
*571 net138
*572 net139
*573 net14
*574 net140
*575 net141
*576 net142
*577 net143
*578 net144
*579 net145
*580 net146
*581 net15
*582 net16
*583 net17
*584 net18
*585 net19
*586 net2
*587 net20
*588 net21
*589 net214
*590 net215
*591 net216
*592 net217
*593 net218
*594 net219
*595 net22
*596 net220
*597 net221
*598 net222
*599 net223
*600 net224
*601 net225
*602 net226
*603 net227
*604 net228
*605 net229
*606 net23
*607 net230
*608 net231
*609 net232
*610 net233
*611 net234
*612 net235
*613 net236
*614 net237
*615 net238
*616 net239
*617 net24
*618 net240
*619 net241
*620 net242
*621 net243
*622 net244
*623 net245
*624 net246
*625 net247
*626 net248
*627 net249
*628 net25
*629 net250
*630 net251
*631 net252
*632 net253
*633 net254
*634 net255
*635 net256
*636 net257
*637 net258
*638 net259
*639 net26
*640 net260
*641 net261
*642 net262
*643 net263
*644 net264
*645 net265
*646 net266
*647 net267
*648 net268
*649 net269
*650 net27
*651 net270
*652 net271
*653 net272
*654 net273
*655 net274
*656 net275
*657 net276
*658 net277
*659 net278
*660 net279
*661 net28
*662 net280
*663 net281
*664 net282
*665 net283
*666 net284
*667 net285
*668 net286
*669 net287
*670 net288
*671 net289
*672 net29
*673 net290
*674 net291
*675 net292
*676 net293
*677 net294
*678 net295
*679 net296
*680 net297
*681 net298
*682 net299
*683 net3
*684 net30
*685 net300
*686 net301
*687 net302
*688 net303
*689 net304
*690 net305
*691 net306
*692 net307
*693 net308
*694 net309
*695 net31
*696 net310
*697 net311
*698 net312
*699 net32
*700 net33
*701 net34
*702 net35
*703 net36
*704 net37
*705 net38
*706 net39
*707 net4
*708 net40
*709 net41
*710 net42
*711 net43
*712 net44
*713 net45
*714 net46
*715 net47
*716 net48
*717 net49
*718 net5
*719 net50
*720 net51
*721 net52
*722 net53
*723 net54
*724 net55
*725 net56
*726 net57
*727 net58
*728 net59
*729 net6
*730 net60
*731 net61
*732 net62
*733 net63
*734 net64
*735 net65
*736 net66
*737 net67
*738 net68
*739 net69
*740 net7
*741 net70
*742 net71
*743 net72
*744 net73
*745 net74
*746 net75
*747 net76
*748 net77
*749 net78
*750 net79
*751 net8
*752 net80
*753 net81
*754 net82
*755 net83
*756 net84
*757 net85
*758 net86
*759 net87
*760 net88
*761 net89
*762 net9
*763 net90
*764 net91
*765 net92
*766 net93
*767 net94
*768 net95
*769 net96
*770 net97
*771 net98
*772 net99
*773 ANTENNA_1
*774 ANTENNA_2
*775 ANTENNA_3
*776 ANTENNA_4
*777 ANTENNA_5
*778 ANTENNA_6
*779 ANTENNA_7
*780 ANTENNA__170__I0
*781 ANTENNA__170__I1
*782 ANTENNA__170__S
*783 ANTENNA__172__I0
*784 ANTENNA__172__I1
*785 ANTENNA__172__S
*786 ANTENNA__174__I
*787 ANTENNA__176__I
*788 ANTENNA__179__A1
*789 ANTENNA__179__A2
*790 ANTENNA__180__A2
*791 ANTENNA__181__I
*792 ANTENNA__182__I
*793 ANTENNA__184__I
*794 ANTENNA__185__B
*795 ANTENNA__186__A1
*796 ANTENNA__186__A2
*797 ANTENNA__188__A2
*798 ANTENNA__189__I
*799 ANTENNA__192__B
*800 ANTENNA__193__B
*801 ANTENNA__194__A1
*802 ANTENNA__194__A2
*803 ANTENNA__195__B
*804 ANTENNA__196__B
*805 ANTENNA__197__A1
*806 ANTENNA__197__A2
*807 ANTENNA__198__I
*808 ANTENNA__199__I
*809 ANTENNA__200__B
*810 ANTENNA__201__B
*811 ANTENNA__202__B
*812 ANTENNA__205__B
*813 ANTENNA__206__A1
*814 ANTENNA__206__A2
*815 ANTENNA__206__A3
*816 ANTENNA__206__A4
*817 ANTENNA__207__B
*818 ANTENNA__208__B
*819 ANTENNA__209__B
*820 ANTENNA__210__A1
*821 ANTENNA__210__A2
*822 ANTENNA__210__A3
*823 ANTENNA__210__A4
*824 ANTENNA__211__B
*825 ANTENNA__212__B
*826 ANTENNA__213__B
*827 ANTENNA__214__B
*828 ANTENNA__215__A1
*829 ANTENNA__215__A2
*830 ANTENNA__215__A3
*831 ANTENNA__215__A4
*832 ANTENNA__217__A1
*833 ANTENNA__218__A1
*834 ANTENNA__218__A2
*835 ANTENNA__218__B
*836 ANTENNA__220__I
*837 ANTENNA__222__A1
*838 ANTENNA__222__A2
*839 ANTENNA__222__B2
*840 ANTENNA__222__C1
*841 ANTENNA__222__C2
*842 ANTENNA__225__I
*843 ANTENNA__226__A2
*844 ANTENNA__227__A1
*845 ANTENNA__227__A2
*846 ANTENNA__227__C2
*847 ANTENNA__229__A2
*848 ANTENNA__230__A1
*849 ANTENNA__231__A1
*850 ANTENNA__231__A2
*851 ANTENNA__231__C2
*852 ANTENNA__233__A2
*853 ANTENNA__233__A3
*854 ANTENNA__234__A1
*855 ANTENNA__235__A1
*856 ANTENNA__235__A2
*857 ANTENNA__235__C2
*858 ANTENNA__237__I
*859 ANTENNA__238__A1
*860 ANTENNA__238__A2
*861 ANTENNA__238__A3
*862 ANTENNA__238__A4
*863 ANTENNA__239__A1
*864 ANTENNA__240__I
*865 ANTENNA__241__A1
*866 ANTENNA__241__A2
*867 ANTENNA__241__C2
*868 ANTENNA__243__A1
*869 ANTENNA__243__A2
*870 ANTENNA__245__B
*871 ANTENNA__247__A1
*872 ANTENNA__247__A2
*873 ANTENNA__247__B1
*874 ANTENNA__247__C2
*875 ANTENNA__249__A1
*876 ANTENNA__250__A1
*877 ANTENNA__250__A2
*878 ANTENNA__250__B1
*879 ANTENNA__250__C2
*880 ANTENNA__252__A1
*881 ANTENNA__253__A1
*882 ANTENNA__254__A1
*883 ANTENNA__254__A2
*884 ANTENNA__254__B1
*885 ANTENNA__254__C2
*886 ANTENNA__256__I
*887 ANTENNA__258__A2
*888 ANTENNA__259__A1
*889 ANTENNA__260__I
*890 ANTENNA__261__I
*891 ANTENNA__262__A2
*892 ANTENNA__263__I
*893 ANTENNA__264__A1
*894 ANTENNA__265__A1
*895 ANTENNA__265__A2
*896 ANTENNA__267__A1
*897 ANTENNA__267__A2
*898 ANTENNA__267__C1
*899 ANTENNA__267__C2
*900 ANTENNA__269__A1
*901 ANTENNA__270__A1
*902 ANTENNA__270__A2
*903 ANTENNA__271__A1
*904 ANTENNA__271__C
*905 ANTENNA__272__A1
*906 ANTENNA__272__A2
*907 ANTENNA__272__B1
*908 ANTENNA__272__B2
*909 ANTENNA__273__B
*910 ANTENNA__275__A1
*911 ANTENNA__277__A1
*912 ANTENNA__277__A2
*913 ANTENNA__277__C2
*914 ANTENNA__279__A1
*915 ANTENNA__279__B
*916 ANTENNA__280__I
*917 ANTENNA__281__I
*918 ANTENNA__282__A1
*919 ANTENNA__282__A2
*920 ANTENNA__282__A3
*921 ANTENNA__283__A2
*922 ANTENNA__284__A1
*923 ANTENNA__284__A2
*924 ANTENNA__284__C2
*925 ANTENNA__286__A1
*926 ANTENNA__286__A2
*927 ANTENNA__287__A1
*928 ANTENNA__287__A2
*929 ANTENNA__287__B1
*930 ANTENNA__287__C2
*931 ANTENNA__289__I
*932 ANTENNA__290__A1
*933 ANTENNA__290__A2
*934 ANTENNA__291__A1
*935 ANTENNA__291__B2
*936 ANTENNA__292__A1
*937 ANTENNA__293__A1
*938 ANTENNA__293__A2
*939 ANTENNA__293__B1
*940 ANTENNA__293__B2
*941 ANTENNA__294__B
*942 ANTENNA__295__A1
*943 ANTENNA__295__A2
*944 ANTENNA__295__A3
*945 ANTENNA__295__A4
*946 ANTENNA__296__I
*947 ANTENNA__297__A1
*948 ANTENNA__297__B
*949 ANTENNA__299__A1
*950 ANTENNA__299__A2
*951 ANTENNA__299__B1
*952 ANTENNA__299__B2
*953 ANTENNA__300__B
*954 ANTENNA__301__A1
*955 ANTENNA__302__A1
*956 ANTENNA__302__A2
*957 ANTENNA__302__B1
*958 ANTENNA__302__C2
*959 ANTENNA__303__A1
*960 ANTENNA__304__I
*961 ANTENNA__305__A1
*962 ANTENNA__306__A1
*963 ANTENNA__307__I
*964 ANTENNA__308__I0
*965 ANTENNA__308__I1
*966 ANTENNA__310__I0
*967 ANTENNA__310__I1
*968 ANTENNA__312__I0
*969 ANTENNA__312__I1
*970 ANTENNA__314__I0
*971 ANTENNA__314__I1
*972 ANTENNA__316__I
*973 ANTENNA__317__I0
*974 ANTENNA__317__I1
*975 ANTENNA__319__I0
*976 ANTENNA__319__I1
*977 ANTENNA__321__I0
*978 ANTENNA__321__I1
*979 ANTENNA__323__A1
*980 ANTENNA__324__A1
*981 ANTENNA__325__I0
*982 ANTENNA__325__I1
*983 ANTENNA__327__A1
*984 ANTENNA__328__A1
*985 ANTENNA__329__I
*986 ANTENNA__331__A1
*987 ANTENNA__332__A1
*988 ANTENNA__333__I
*989 ANTENNA__334__A1
*990 ANTENNA__336__A1
*991 ANTENNA__337__A1
*992 ANTENNA__338__A1
*993 ANTENNA__339__A1
*994 ANTENNA__340__I0
*995 ANTENNA__340__I1
*996 ANTENNA__340__S
*997 ANTENNA__342__CLK
*998 ANTENNA__343__CLK
*999 ANTENNA__344__CLK
*1000 ANTENNA__345__CLK
*1001 ANTENNA__346__CLK
*1002 ANTENNA__347__CLK
*1003 ANTENNA__348__CLK
*1004 ANTENNA__349__CLK
*1005 ANTENNA__350__CLK
*1006 ANTENNA__351__CLK
*1007 ANTENNA__352__CLK
*1008 ANTENNA__353__CLK
*1009 ANTENNA__354__CLK
*1010 ANTENNA__355__CLK
*1011 ANTENNA__356__CLK
*1012 ANTENNA__357__CLK
*1013 ANTENNA__358__CLK
*1014 ANTENNA__359__CLK
*1015 ANTENNA__360__CLK
*1016 ANTENNA__361__CLK
*1017 ANTENNA__362__CLK
*1018 ANTENNA__363__CLK
*1019 ANTENNA__364__CLK
*1020 ANTENNA__365__CLK
*1021 ANTENNA__366__CLK
*1022 ANTENNA__367__CLK
*1023 ANTENNA__368__CLK
*1024 ANTENNA__369__CLK
*1025 ANTENNA__370__CLK
*1026 ANTENNA__371__CLK
*1027 ANTENNA__372__CLK
*1028 ANTENNA__373__CLK
*1029 ANTENNA__374__CLK
*1030 ANTENNA__442__I
*1031 ANTENNA__443__I
*1032 ANTENNA__444__I
*1033 ANTENNA__445__I
*1034 ANTENNA__446__I
*1035 ANTENNA__447__I
*1036 ANTENNA__448__I
*1037 ANTENNA__449__I
*1038 ANTENNA__450__I
*1039 ANTENNA__451__I
*1040 ANTENNA__452__I
*1041 ANTENNA__453__I
*1042 ANTENNA__454__I
*1043 ANTENNA__455__I
*1044 ANTENNA__456__I
*1045 ANTENNA__457__I
*1046 ANTENNA__458__I
*1047 ANTENNA__459__I
*1048 ANTENNA__460__I
*1049 ANTENNA__461__I
*1050 ANTENNA__462__I
*1051 ANTENNA__463__I
*1052 ANTENNA__464__I
*1053 ANTENNA__465__I
*1054 ANTENNA__466__I
*1055 ANTENNA__468__I
*1056 ANTENNA__470__I
*1057 ANTENNA__471__I
*1058 ANTENNA__472__I
*1059 ANTENNA_clkbuf_0_counter\.clk_I
*1060 ANTENNA_clkbuf_2_0__f_counter\.clk_I
*1061 ANTENNA_clkbuf_2_1__f_counter\.clk_I
*1062 ANTENNA_clkbuf_2_2__f_counter\.clk_I
*1063 ANTENNA_clkbuf_2_3__f_counter\.clk_I
*1064 ANTENNA_fanout125_I
*1065 ANTENNA_fanout128_I
*1066 ANTENNA_fanout129_I
*1067 ANTENNA_fanout131_I
*1068 ANTENNA_fanout133_I
*1069 ANTENNA_fanout135_I
*1070 ANTENNA_fanout137_I
*1071 ANTENNA_fanout138_I
*1072 ANTENNA_fanout140_I
*1073 ANTENNA_fanout141_I
*1074 ANTENNA_fanout142_I
*1075 ANTENNA_fanout143_I
*1076 ANTENNA_fanout144_I
*1077 ANTENNA_fanout145_I
*1078 ANTENNA_hold10_I
*1079 ANTENNA_hold13_I
*1080 ANTENNA_hold14_I
*1081 ANTENNA_hold17_I
*1082 ANTENNA_hold18_I
*1083 ANTENNA_hold1_I
*1084 ANTENNA_hold21_I
*1085 ANTENNA_hold22_I
*1086 ANTENNA_hold25_I
*1087 ANTENNA_hold26_I
*1088 ANTENNA_hold29_I
*1089 ANTENNA_hold2_I
*1090 ANTENNA_hold30_I
*1091 ANTENNA_hold33_I
*1092 ANTENNA_hold34_I
*1093 ANTENNA_hold37_I
*1094 ANTENNA_hold38_I
*1095 ANTENNA_hold41_I
*1096 ANTENNA_hold42_I
*1097 ANTENNA_hold45_I
*1098 ANTENNA_hold46_I
*1099 ANTENNA_hold49_I
*1100 ANTENNA_hold50_I
*1101 ANTENNA_hold53_I
*1102 ANTENNA_hold54_I
*1103 ANTENNA_hold57_I
*1104 ANTENNA_hold58_I
*1105 ANTENNA_hold5_I
*1106 ANTENNA_hold61_I
*1107 ANTENNA_hold62_I
*1108 ANTENNA_hold65_I
*1109 ANTENNA_hold66_I
*1110 ANTENNA_hold68_I
*1111 ANTENNA_hold6_I
*1112 ANTENNA_hold70_I
*1113 ANTENNA_hold71_I
*1114 ANTENNA_hold73_I
*1115 ANTENNA_hold76_I
*1116 ANTENNA_hold78_I
*1117 ANTENNA_hold80_I
*1118 ANTENNA_hold82_I
*1119 ANTENNA_hold84_I
*1120 ANTENNA_hold86_I
*1121 ANTENNA_hold87_I
*1122 ANTENNA_hold89_I
*1123 ANTENNA_hold90_I
*1124 ANTENNA_hold92_I
*1125 ANTENNA_hold94_I
*1126 ANTENNA_hold95_I
*1127 ANTENNA_hold96_I
*1128 ANTENNA_hold99_I
*1129 ANTENNA_hold9_I
*1130 ANTENNA_input17_I
*1131 ANTENNA_input35_I
*1132 ANTENNA_input37_I
*1133 ANTENNA_input38_I
*1134 ANTENNA_input39_I
*1135 ANTENNA_input40_I
*1136 ANTENNA_input41_I
*1137 ANTENNA_input42_I
*1138 ANTENNA_input43_I
*1139 ANTENNA_input44_I
*1140 ANTENNA_input45_I
*1141 ANTENNA_input46_I
*1142 ANTENNA_input47_I
*1143 ANTENNA_input48_I
*1144 ANTENNA_input49_I
*1145 ANTENNA_input50_I
*1146 ANTENNA_input51_I
*1147 ANTENNA_input52_I
*1148 ANTENNA_input53_I
*1149 ANTENNA_input54_I
*1150 ANTENNA_input55_I
*1151 ANTENNA_input56_I
*1152 ANTENNA_input57_I
*1153 ANTENNA_input58_I
*1154 ANTENNA_output107_I
*1155 ANTENNA_output108_I
*1156 ANTENNA_output109_I
*1157 ANTENNA_output110_I
*1158 ANTENNA_output111_I
*1159 ANTENNA_output112_I
*1160 ANTENNA_output113_I
*1161 ANTENNA_output114_I
*1162 ANTENNA_output115_I
*1163 ANTENNA_output116_I
*1164 ANTENNA_output117_I
*1165 ANTENNA_output118_I
*1166 ANTENNA_output119_I
*1167 ANTENNA_output120_I
*1168 ANTENNA_output121_I
*1169 ANTENNA_output122_I
*1170 ANTENNA_output123_I
*1171 ANTENNA_output65_I
*1172 ANTENNA_output75_I
*1173 ANTENNA_output76_I
*1174 ANTENNA_output77_I
*1175 ANTENNA_output78_I
*1176 ANTENNA_output79_I
*1177 ANTENNA_output80_I
*1178 ANTENNA_output81_I
*1179 ANTENNA_output82_I
*1180 ANTENNA_output83_I
*1181 ANTENNA_output84_I
*1182 ANTENNA_output85_I
*1183 ANTENNA_output86_I
*1184 ANTENNA_output87_I
*1185 ANTENNA_output88_I
*1186 ANTENNA_output89_I
*1187 ANTENNA_output90_I
*1188 ANTENNA_output91_I
*1189 FILLER_0_0_1022
*1190 FILLER_0_0_1026
*1191 FILLER_0_0_104
*1192 FILLER_0_0_1042
*1193 FILLER_0_0_1046
*1194 FILLER_0_0_1051
*1195 FILLER_0_0_1053
*1196 FILLER_0_0_1056
*1197 FILLER_0_0_108
*1198 FILLER_0_0_1090
*1199 FILLER_0_0_1094
*1200 FILLER_0_0_1099
*1201 FILLER_0_0_1115
*1202 FILLER_0_0_1119
*1203 FILLER_0_0_1121
*1204 FILLER_0_0_1124
*1205 FILLER_0_0_1140
*1206 FILLER_0_0_1142
*1207 FILLER_0_0_1147
*1208 FILLER_0_0_1155
*1209 FILLER_0_0_1158
*1210 FILLER_0_0_1196
*1211 FILLER_0_0_1212
*1212 FILLER_0_0_1220
*1213 FILLER_0_0_1226
*1214 FILLER_0_0_1234
*1215 FILLER_0_0_1238
*1216 FILLER_0_0_1243
*1217 FILLER_0_0_1251
*1218 FILLER_0_0_1255
*1219 FILLER_0_0_1257
*1220 FILLER_0_0_1260
*1221 FILLER_0_0_1276
*1222 FILLER_0_0_1284
*1223 FILLER_0_0_1286
*1224 FILLER_0_0_1291
*1225 FILLER_0_0_1294
*1226 FILLER_0_0_1328
*1227 FILLER_0_0_1332
*1228 FILLER_0_0_1334
*1229 FILLER_0_0_1339
*1230 FILLER_0_0_1355
*1231 FILLER_0_0_1359
*1232 FILLER_0_0_1362
*1233 FILLER_0_0_1378
*1234 FILLER_0_0_138
*1235 FILLER_0_0_1382
*1236 FILLER_0_0_1387
*1237 FILLER_0_0_1391
*1238 FILLER_0_0_1393
*1239 FILLER_0_0_1396
*1240 FILLER_0_0_142
*1241 FILLER_0_0_1430
*1242 FILLER_0_0_1435
*1243 FILLER_0_0_1451
*1244 FILLER_0_0_1459
*1245 FILLER_0_0_1461
*1246 FILLER_0_0_1464
*1247 FILLER_0_0_1472
*1248 FILLER_0_0_1476
*1249 FILLER_0_0_1478
*1250 FILLER_0_0_1483
*1251 FILLER_0_0_1491
*1252 FILLER_0_0_1495
*1253 FILLER_0_0_1498
*1254 FILLER_0_0_1536
*1255 FILLER_0_0_1552
*1256 FILLER_0_0_1560
*1257 FILLER_0_0_1591
*1258 FILLER_0_0_1595
*1259 FILLER_0_0_1597
*1260 FILLER_0_0_1600
*1261 FILLER_0_0_1608
*1262 FILLER_0_0_1610
*1263 FILLER_0_0_1634
*1264 FILLER_0_0_1638
*1265 FILLER_0_0_1642
*1266 FILLER_0_0_1644
*1267 FILLER_0_0_1647
*1268 FILLER_0_0_1651
*1269 FILLER_0_0_1663
*1270 FILLER_0_0_1665
*1271 FILLER_0_0_1668
*1272 FILLER_0_0_1670
*1273 FILLER_0_0_1675
*1274 FILLER_0_0_1691
*1275 FILLER_0_0_1699
*1276 FILLER_0_0_1702
*1277 FILLER_0_0_1706
*1278 FILLER_0_0_1727
*1279 FILLER_0_0_1731
*1280 FILLER_0_0_1733
*1281 FILLER_0_0_1736
*1282 FILLER_0_0_1740
*1283 FILLER_0_0_1756
*1284 FILLER_0_0_1764
*1285 FILLER_0_0_1774
*1286 FILLER_0_0_1790
*1287 FILLER_0_0_180
*1288 FILLER_0_0_1830
*1289 FILLER_0_0_1878
*1290 FILLER_0_0_188
*1291 FILLER_0_0_1882
*1292 FILLER_0_0_1885
*1293 FILLER_0_0_1901
*1294 FILLER_0_0_1903
*1295 FILLER_0_0_1932
*1296 FILLER_0_0_1940
*1297 FILLER_0_0_1942
*1298 FILLER_0_0_1969
*1299 FILLER_0_0_1971
*1300 FILLER_0_0_1974
*1301 FILLER_0_0_1978
*1302 FILLER_0_0_1986
*1303 FILLER_0_0_1994
*1304 FILLER_0_0_1998
*1305 FILLER_0_0_2
*1306 FILLER_0_0_2034
*1307 FILLER_0_0_2038
*1308 FILLER_0_0_206
*1309 FILLER_0_0_2068
*1310 FILLER_0_0_2072
*1311 FILLER_0_0_2076
*1312 FILLER_0_0_2080
*1313 FILLER_0_0_210
*1314 FILLER_0_0_2110
*1315 FILLER_0_0_2170
*1316 FILLER_0_0_2178
*1317 FILLER_0_0_2180
*1318 FILLER_0_0_2209
*1319 FILLER_0_0_2212
*1320 FILLER_0_0_2216
*1321 FILLER_0_0_2348
*1322 FILLER_0_0_2365
*1323 FILLER_0_0_2378
*1324 FILLER_0_0_2450
*1325 FILLER_0_0_246
*1326 FILLER_0_0_2470
*1327 FILLER_0_0_2472
*1328 FILLER_0_0_2481
*1329 FILLER_0_0_2490
*1330 FILLER_0_0_2492
*1331 FILLER_0_0_2495
*1332 FILLER_0_0_250
*1333 FILLER_0_0_2508
*1334 FILLER_0_0_2518
*1335 FILLER_0_0_254
*1336 FILLER_0_0_2545
*1337 FILLER_0_0_2594
*1338 FILLER_0_0_2617
*1339 FILLER_0_0_2620
*1340 FILLER_0_0_2624
*1341 FILLER_0_0_2628
*1342 FILLER_0_0_2651
*1343 FILLER_0_0_274
*1344 FILLER_0_0_2753
*1345 FILLER_0_0_278
*1346 FILLER_0_0_2787
*1347 FILLER_0_0_2790
*1348 FILLER_0_0_2818
*1349 FILLER_0_0_2824
*1350 FILLER_0_0_2826
*1351 FILLER_0_0_2851
*1352 FILLER_0_0_2855
*1353 FILLER_0_0_2862
*1354 FILLER_0_0_2877
*1355 FILLER_0_0_2881
*1356 FILLER_0_0_2885
*1357 FILLER_0_0_2887
*1358 FILLER_0_0_2892
*1359 FILLER_0_0_2900
*1360 FILLER_0_0_2902
*1361 FILLER_0_0_2907
*1362 FILLER_0_0_2923
*1363 FILLER_0_0_2926
*1364 FILLER_0_0_2942
*1365 FILLER_0_0_2950
*1366 FILLER_0_0_2955
*1367 FILLER_0_0_2957
*1368 FILLER_0_0_2960
*1369 FILLER_0_0_2994
*1370 FILLER_0_0_2998
*1371 FILLER_0_0_3003
*1372 FILLER_0_0_3019
*1373 FILLER_0_0_3023
*1374 FILLER_0_0_3025
*1375 FILLER_0_0_3028
*1376 FILLER_0_0_3044
*1377 FILLER_0_0_3046
*1378 FILLER_0_0_305
*1379 FILLER_0_0_3051
*1380 FILLER_0_0_3059
*1381 FILLER_0_0_3062
*1382 FILLER_0_0_3100
*1383 FILLER_0_0_3116
*1384 FILLER_0_0_3124
*1385 FILLER_0_0_3130
*1386 FILLER_0_0_3138
*1387 FILLER_0_0_314
*1388 FILLER_0_0_3142
*1389 FILLER_0_0_3147
*1390 FILLER_0_0_3155
*1391 FILLER_0_0_3159
*1392 FILLER_0_0_3161
*1393 FILLER_0_0_3164
*1394 FILLER_0_0_318
*1395 FILLER_0_0_3180
*1396 FILLER_0_0_3188
*1397 FILLER_0_0_3190
*1398 FILLER_0_0_3195
*1399 FILLER_0_0_3198
*1400 FILLER_0_0_3232
*1401 FILLER_0_0_3236
*1402 FILLER_0_0_3238
*1403 FILLER_0_0_3243
*1404 FILLER_0_0_3259
*1405 FILLER_0_0_3263
*1406 FILLER_0_0_3266
*1407 FILLER_0_0_3282
*1408 FILLER_0_0_3286
*1409 FILLER_0_0_3291
*1410 FILLER_0_0_3295
*1411 FILLER_0_0_3297
*1412 FILLER_0_0_3300
*1413 FILLER_0_0_3334
*1414 FILLER_0_0_3339
*1415 FILLER_0_0_3355
*1416 FILLER_0_0_3363
*1417 FILLER_0_0_3365
*1418 FILLER_0_0_3368
*1419 FILLER_0_0_3376
*1420 FILLER_0_0_3380
*1421 FILLER_0_0_3382
*1422 FILLER_0_0_3387
*1423 FILLER_0_0_3395
*1424 FILLER_0_0_3399
*1425 FILLER_0_0_3402
*1426 FILLER_0_0_342
*1427 FILLER_0_0_3440
*1428 FILLER_0_0_3456
*1429 FILLER_0_0_3464
*1430 FILLER_0_0_3470
*1431 FILLER_0_0_3478
*1432 FILLER_0_0_3483
*1433 FILLER_0_0_3499
*1434 FILLER_0_0_3501
*1435 FILLER_0_0_3504
*1436 FILLER_0_0_3520
*1437 FILLER_0_0_3524
*1438 FILLER_0_0_3526
*1439 FILLER_0_0_3531
*1440 FILLER_0_0_3535
*1441 FILLER_0_0_3538
*1442 FILLER_0_0_3572
*1443 FILLER_0_0_3574
*1444 FILLER_0_0_3579
*1445 FILLER_0_0_3595
*1446 FILLER_0_0_36
*1447 FILLER_0_0_3603
*1448 FILLER_0_0_3606
*1449 FILLER_0_0_3622
*1450 FILLER_0_0_3627
*1451 FILLER_0_0_3635
*1452 FILLER_0_0_3637
*1453 FILLER_0_0_3640
*1454 FILLER_0_0_3678
*1455 FILLER_0_0_369
*1456 FILLER_0_0_3694
*1457 FILLER_0_0_3702
*1458 FILLER_0_0_3708
*1459 FILLER_0_0_3716
*1460 FILLER_0_0_3718
*1461 FILLER_0_0_3723
*1462 FILLER_0_0_373
*1463 FILLER_0_0_3739
*1464 FILLER_0_0_3742
*1465 FILLER_0_0_3758
*1466 FILLER_0_0_376
*1467 FILLER_0_0_3766
*1468 FILLER_0_0_3771
*1469 FILLER_0_0_3773
*1470 FILLER_0_0_3776
*1471 FILLER_0_0_3810
*1472 FILLER_0_0_3814
*1473 FILLER_0_0_3819
*1474 FILLER_0_0_3835
*1475 FILLER_0_0_3839
*1476 FILLER_0_0_384
*1477 FILLER_0_0_3841
*1478 FILLER_0_0_3844
*1479 FILLER_0_0_3860
*1480 FILLER_0_0_3862
*1481 FILLER_0_0_3867
*1482 FILLER_0_0_3875
*1483 FILLER_0_0_3878
*1484 FILLER_0_0_388
*1485 FILLER_0_0_3916
*1486 FILLER_0_0_3932
*1487 FILLER_0_0_3940
*1488 FILLER_0_0_3946
*1489 FILLER_0_0_3954
*1490 FILLER_0_0_3958
*1491 FILLER_0_0_3963
*1492 FILLER_0_0_3971
*1493 FILLER_0_0_3975
*1494 FILLER_0_0_3977
*1495 FILLER_0_0_3980
*1496 FILLER_0_0_3984
*1497 FILLER_0_0_3986
*1498 FILLER_0_0_4003
*1499 FILLER_0_0_4007
*1500 FILLER_0_0_4011
*1501 FILLER_0_0_4018
*1502 FILLER_0_0_4020
*1503 FILLER_0_0_405
*1504 FILLER_0_0_4064
*1505 FILLER_0_0_407
*1506 FILLER_0_0_4082
*1507 FILLER_0_0_4104
*1508 FILLER_0_0_4112
*1509 FILLER_0_0_4116
*1510 FILLER_0_0_4145
*1511 FILLER_0_0_4147
*1512 FILLER_0_0_4162
*1513 FILLER_0_0_4166
*1514 FILLER_0_0_4181
*1515 FILLER_0_0_4200
*1516 FILLER_0_0_4208
*1517 FILLER_0_0_4212
*1518 FILLER_0_0_4243
*1519 FILLER_0_0_4247
*1520 FILLER_0_0_4249
*1521 FILLER_0_0_4256
*1522 FILLER_0_0_4258
*1523 FILLER_0_0_4302
*1524 FILLER_0_0_4310
*1525 FILLER_0_0_4314
*1526 FILLER_0_0_4336
*1527 FILLER_0_0_4344
*1528 FILLER_0_0_4349
*1529 FILLER_0_0_4351
*1530 FILLER_0_0_4354
*1531 FILLER_0_0_436
*1532 FILLER_0_0_4385
*1533 FILLER_0_0_440
*1534 FILLER_0_0_4402
*1535 FILLER_0_0_4422
*1536 FILLER_0_0_444
*1537 FILLER_0_0_4440
*1538 FILLER_0_0_4448
*1539 FILLER_0_0_4481
*1540 FILLER_0_0_4485
*1541 FILLER_0_0_4487
*1542 FILLER_0_0_4490
*1543 FILLER_0_0_4494
*1544 FILLER_0_0_4496
*1545 FILLER_0_0_452
*1546 FILLER_0_0_4540
*1547 FILLER_0_0_4548
*1548 FILLER_0_0_4552
*1549 FILLER_0_0_4583
*1550 FILLER_0_0_4587
*1551 FILLER_0_0_4589
*1552 FILLER_0_0_4596
*1553 FILLER_0_0_4598
*1554 FILLER_0_0_4642
*1555 FILLER_0_0_4660
*1556 FILLER_0_0_4680
*1557 FILLER_0_0_4688
*1558 FILLER_0_0_469
*1559 FILLER_0_0_4694
*1560 FILLER_0_0_4721
*1561 FILLER_0_0_4725
*1562 FILLER_0_0_473
*1563 FILLER_0_0_4732
*1564 FILLER_0_0_4734
*1565 FILLER_0_0_475
*1566 FILLER_0_0_4780
*1567 FILLER_0_0_4788
*1568 FILLER_0_0_4792
*1569 FILLER_0_0_4796
*1570 FILLER_0_0_4812
*1571 FILLER_0_0_4834
*1572 FILLER_0_0_4868
*1573 FILLER_0_0_4870
*1574 FILLER_0_0_4875
*1575 FILLER_0_0_4883
*1576 FILLER_0_0_4891
*1577 FILLER_0_0_4895
*1578 FILLER_0_0_4898
*1579 FILLER_0_0_4932
*1580 FILLER_0_0_4966
*1581 FILLER_0_0_504
*1582 FILLER_0_0_508
*1583 FILLER_0_0_512
*1584 FILLER_0_0_516
*1585 FILLER_0_0_546
*1586 FILLER_0_0_548
*1587 FILLER_0_0_565
*1588 FILLER_0_0_573
*1589 FILLER_0_0_577
*1590 FILLER_0_0_580
*1591 FILLER_0_0_596
*1592 FILLER_0_0_614
*1593 FILLER_0_0_641
*1594 FILLER_0_0_643
*1595 FILLER_0_0_658
*1596 FILLER_0_0_674
*1597 FILLER_0_0_678
*1598 FILLER_0_0_682
*1599 FILLER_0_0_690
*1600 FILLER_0_0_692
*1601 FILLER_0_0_70
*1602 FILLER_0_0_705
*1603 FILLER_0_0_713
*1604 FILLER_0_0_742
*1605 FILLER_0_0_746
*1606 FILLER_0_0_750
*1607 FILLER_0_0_754
*1608 FILLER_0_0_784
*1609 FILLER_0_0_788
*1610 FILLER_0_0_805
*1611 FILLER_0_0_813
*1612 FILLER_0_0_815
*1613 FILLER_0_0_818
*1614 FILLER_0_0_834
*1615 FILLER_0_0_852
*1616 FILLER_0_0_854
*1617 FILLER_0_0_881
*1618 FILLER_0_0_883
*1619 FILLER_0_0_886
*1620 FILLER_0_0_897
*1621 FILLER_0_0_913
*1622 FILLER_0_0_917
*1623 FILLER_0_0_920
*1624 FILLER_0_0_928
*1625 FILLER_0_0_932
*1626 FILLER_0_0_945
*1627 FILLER_0_0_949