*SPEF "ieee 1481-1999"
*DESIGN "interp_tri"
*DATE "11:11:11 Fri 11 11, 1111"
*VENDOR "OpenRCX"
*PROGRAM "Parallel Extraction"
*VERSION "1.0"
*DESIGN_FLOW "NAME_SCOPE LOCAL" "PIN_CAP NONE"
*DIVIDER /
*DELIMITER :
*BUS_DELIMITER []
*T_UNIT 1 NS
*C_UNIT 1 PF
*R_UNIT 1 OHM
*L_UNIT 1 HENRY

*NAME_MAP
*1 clk
*4 wb_clk_i
*5 wb_rst_i
*6 wbs_ack_o
*7 wbs_adr_i[2]
*8 wbs_adr_i[3]
*9 wbs_cyc_i
*10 wbs_dat_i[0]
*11 wbs_dat_i[10]
*12 wbs_dat_i[11]
*13 wbs_dat_i[12]
*14 wbs_dat_i[13]
*15 wbs_dat_i[14]
*16 wbs_dat_i[15]
*17 wbs_dat_i[16]
*18 wbs_dat_i[17]
*19 wbs_dat_i[18]
*20 wbs_dat_i[19]
*21 wbs_dat_i[1]
*22 wbs_dat_i[20]
*23 wbs_dat_i[21]
*24 wbs_dat_i[22]
*25 wbs_dat_i[23]
*26 wbs_dat_i[24]
*27 wbs_dat_i[25]
*28 wbs_dat_i[26]
*29 wbs_dat_i[27]
*30 wbs_dat_i[28]
*31 wbs_dat_i[29]
*32 wbs_dat_i[2]
*33 wbs_dat_i[30]
*34 wbs_dat_i[31]
*35 wbs_dat_i[3]
*36 wbs_dat_i[4]
*37 wbs_dat_i[5]
*38 wbs_dat_i[6]
*39 wbs_dat_i[7]
*40 wbs_dat_i[8]
*41 wbs_dat_i[9]
*42 wbs_sel_i[0]
*43 wbs_sel_i[1]
*44 wbs_sel_i[2]
*45 wbs_sel_i[3]
*46 wbs_stb_i
*47 wbs_we_i
*48 x_end[0]
*49 x_end[1]
*50 x_end[2]
*51 x_end[3]
*52 x_end[4]
*53 x_end[5]
*54 x_end[6]
*55 x_end[7]
*56 x_start[0]
*57 x_start[1]
*58 x_start[2]
*59 x_start[3]
*60 x_start[4]
*61 x_start[5]
*62 x_start[6]
*63 x_start[7]
*64 y[0]
*65 y[1]
*66 y[2]
*67 y[3]
*68 y[4]
*69 y[5]
*70 y[6]
*71 y[7]
*72 _0000_
*73 _0001_
*74 _0002_
*75 _0003_
*76 _0004_
*77 _0005_
*78 _0006_
*79 _0007_
*80 _0008_
*81 _0009_
*82 _0010_
*83 _0011_
*84 _0012_
*85 _0013_
*86 _0014_
*87 _0015_
*88 _0016_
*89 _0017_
*90 _0018_
*91 _0019_
*92 _0020_
*93 _0021_
*94 _0022_
*95 _0023_
*96 _0024_
*97 _0025_
*98 _0026_
*99 _0027_
*100 _0028_
*101 _0029_
*102 _0030_
*103 _0031_
*104 _0032_
*105 _0033_
*106 _0034_
*107 _0035_
*108 _0036_
*109 _0037_
*110 _0038_
*111 _0039_
*112 _0040_
*113 _0041_
*114 _0042_
*115 _0043_
*116 _0044_
*117 _0045_
*118 _0046_
*119 _0047_
*120 _0048_
*121 _0049_
*122 _0050_
*123 _0051_
*124 _0052_
*125 _0053_
*126 _0054_
*127 _0055_
*128 _0056_
*129 _0057_
*130 _0058_
*131 _0059_
*132 _0060_
*133 _0061_
*134 _0062_
*135 _0063_
*136 _0064_
*137 _0065_
*138 _0066_
*139 _0067_
*140 _0068_
*141 _0069_
*142 _0070_
*143 _0071_
*144 _0072_
*145 _0073_
*146 _0074_
*147 _0075_
*148 _0076_
*149 _0077_
*150 _0078_
*151 _0079_
*152 _0080_
*153 _0081_
*154 _0082_
*155 _0083_
*156 _0084_
*157 _0085_
*158 _0086_
*159 _0087_
*160 _0088_
*161 _0089_
*162 _0090_
*163 _0091_
*164 _0092_
*165 _0093_
*166 _0094_
*167 _0095_
*168 _0096_
*169 _0097_
*170 _0098_
*171 _0099_
*172 _0100_
*173 _0101_
*174 _0102_
*175 _0103_
*176 _0104_
*177 _0105_
*178 _0106_
*179 _0107_
*180 _0108_
*181 _0109_
*182 _0110_
*183 _0111_
*184 _0112_
*185 _0113_
*186 _0114_
*187 _0115_
*188 _0116_
*189 _0117_
*190 _0118_
*191 _0119_
*192 _0120_
*193 _0121_
*194 _0122_
*195 _0123_
*196 _0124_
*197 _0125_
*198 _0126_
*199 _0127_
*200 _0128_
*201 _0129_
*202 _0130_
*203 _0131_
*204 _0132_
*205 _0133_
*206 _0134_
*207 _0135_
*208 _0136_
*209 _0137_
*210 _0138_
*211 _0139_
*212 _0140_
*213 _0141_
*214 _0142_
*215 _0143_
*216 _0144_
*217 _0145_
*218 _0146_
*219 _0147_
*220 _0148_
*221 _0149_
*222 _0150_
*223 _0151_
*224 _0152_
*225 _0153_
*226 _0154_
*227 _0155_
*228 _0156_
*229 _0157_
*230 _0158_
*231 _0159_
*232 _0160_
*233 _0161_
*234 _0162_
*235 _0163_
*236 _0164_
*237 _0165_
*238 _0166_
*239 _0167_
*240 _0168_
*241 _0169_
*242 _0170_
*243 _0171_
*244 _0172_
*245 _0173_
*246 _0174_
*247 _0175_
*248 _0176_
*249 _0177_
*250 _0178_
*251 _0179_
*252 _0180_
*253 _0181_
*254 _0182_
*255 _0183_
*256 _0184_
*257 _0185_
*258 _0186_
*259 _0187_
*260 _0188_
*261 _0189_
*262 _0190_
*263 _0191_
*264 _0192_
*265 _0193_
*266 _0194_
*267 _0195_
*268 _0196_
*269 _0197_
*270 _0198_
*271 _0199_
*272 _0200_
*273 _0201_
*274 _0202_
*275 _0203_
*276 _0204_
*277 _0205_
*278 _0206_
*279 _0207_
*280 _0208_
*281 _0209_
*282 _0210_
*283 _0211_
*284 _0212_
*285 _0213_
*286 _0214_
*287 _0215_
*288 _0216_
*289 _0217_
*290 _0218_
*291 _0219_
*292 _0220_
*293 _0221_
*294 _0222_
*295 _0223_
*296 _0224_
*297 _0225_
*298 _0226_
*299 _0227_
*300 _0228_
*301 _0229_
*302 _0230_
*303 _0231_
*304 _0232_
*305 _0233_
*306 _0234_
*307 _0235_
*308 _0236_
*309 _0237_
*310 _0238_
*311 _0239_
*312 _0240_
*313 _0241_
*314 _0242_
*315 _0243_
*316 _0244_
*317 _0245_
*318 _0246_
*319 _0247_
*320 _0248_
*321 _0249_
*322 _0250_
*323 _0251_
*324 _0252_
*325 _0253_
*326 _0254_
*327 _0255_
*328 _0256_
*329 _0257_
*330 _0258_
*331 _0259_
*332 _0260_
*333 _0261_
*334 _0262_
*335 _0263_
*336 _0264_
*337 _0265_
*338 _0266_
*339 _0267_
*340 _0268_
*341 _0269_
*342 _0270_
*343 _0271_
*344 _0272_
*345 _0273_
*346 _0274_
*347 _0275_
*348 _0276_
*349 _0277_
*350 _0278_
*351 _0279_
*352 _0280_
*353 _0281_
*354 _0282_
*355 _0283_
*356 _0284_
*357 _0285_
*358 _0286_
*359 _0287_
*360 _0288_
*361 _0289_
*362 _0290_
*363 _0291_
*364 _0292_
*365 _0293_
*366 _0294_
*367 _0295_
*368 _0296_
*369 _0297_
*370 _0298_
*371 _0299_
*372 _0300_
*373 _0301_
*374 _0302_
*375 _0303_
*376 _0304_
*377 _0305_
*378 _0306_
*379 _0307_
*380 _0308_
*381 _0309_
*382 _0310_
*383 _0311_
*384 _0312_
*385 _0313_
*386 _0314_
*387 _0315_
*388 _0316_
*389 _0317_
*390 _0318_
*391 _0319_
*392 _0320_
*393 _0321_
*394 _0322_
*395 _0323_
*396 _0324_
*397 _0325_
*398 _0326_
*399 _0327_
*400 _0328_
*401 _0329_
*402 _0330_
*403 _0331_
*404 _0332_
*405 _0333_
*406 _0334_
*407 _0335_
*408 _0336_
*409 _0337_
*410 _0338_
*411 _0339_
*412 _0340_
*413 _0341_
*414 _0342_
*415 _0343_
*416 _0344_
*417 _0345_
*418 _0346_
*419 _0347_
*420 _0348_
*421 _0349_
*422 _0350_
*423 _0351_
*424 _0352_
*425 _0353_
*426 _0354_
*427 _0355_
*428 _0356_
*429 _0357_
*430 _0358_
*431 _0359_
*432 _0360_
*433 _0361_
*434 _0362_
*435 _0363_
*436 _0364_
*437 _0365_
*438 _0366_
*439 _0367_
*440 _0368_
*441 _0369_
*442 _0370_
*443 _0371_
*444 _0372_
*445 _0373_
*446 _0374_
*447 _0375_
*448 _0376_
*449 _0377_
*450 _0378_
*451 _0379_
*452 _0380_
*453 _0381_
*454 _0382_
*455 _0383_
*456 _0384_
*457 _0385_
*458 _0386_
*459 _0387_
*460 _0388_
*461 _0389_
*462 _0390_
*463 _0391_
*464 _0392_
*465 _0393_
*466 _0394_
*467 _0395_
*468 _0396_
*469 _0397_
*470 _0398_
*471 _0399_
*472 _0400_
*473 _0401_
*474 _0402_
*475 _0403_
*476 _0404_
*477 _0405_
*478 _0406_
*479 _0407_
*480 _0408_
*481 _0409_
*482 _0410_
*483 _0411_
*484 _0412_
*485 _0413_
*486 _0414_
*487 _0415_
*488 _0416_
*489 _0417_
*490 _0418_
*491 _0419_
*492 _0420_
*493 _0421_
*494 _0422_
*495 _0423_
*496 _0424_
*497 _0425_
*498 _0426_
*499 _0427_
*500 _0428_
*501 _0429_
*502 _0430_
*503 _0431_
*504 _0432_
*505 _0433_
*506 _0434_
*507 _0435_
*508 _0436_
*509 _0437_
*510 _0438_
*511 _0439_
*512 _0440_
*513 _0441_
*514 _0442_
*515 _0443_
*516 _0444_
*517 _0445_
*518 _0446_
*519 _0447_
*520 _0448_
*521 _0449_
*522 _0450_
*523 _0451_
*524 _0452_
*525 _0453_
*526 _0454_
*527 _0455_
*528 _0456_
*529 _0457_
*530 _0458_
*531 _0459_
*532 _0460_
*533 _0461_
*534 _0462_
*535 _0463_
*536 _0464_
*537 _0465_
*538 _0466_
*539 _0467_
*540 _0468_
*541 _0469_
*542 _0470_
*543 _0471_
*544 _0472_
*545 _0473_
*546 _0474_
*547 _0475_
*548 _0476_
*549 _0477_
*550 _0478_
*551 _0479_
*552 _0480_
*553 _0481_
*554 _0482_
*555 _0483_
*556 _0484_
*557 _0485_
*558 _0486_
*559 _0487_
*560 _0488_
*561 _0489_
*562 _0490_
*563 _0491_
*564 _0492_
*565 _0493_
*566 _0494_
*567 _0495_
*568 _0496_
*569 _0497_
*570 _0498_
*571 _0499_
*572 _0500_
*573 _0501_
*574 _0502_
*575 _0503_
*576 _0504_
*577 _0505_
*578 _0506_
*579 _0507_
*580 _0508_
*581 _0509_
*582 _0510_
*583 _0511_
*584 _0512_
*585 _0513_
*586 _0514_
*587 _0515_
*588 _0516_
*589 _0517_
*590 _0518_
*591 _0519_
*592 _0520_
*593 _0521_
*594 _0522_
*595 _0523_
*596 _0524_
*597 _0525_
*598 _0526_
*599 _0527_
*600 _0528_
*601 _0529_
*602 _0530_
*603 _0531_
*604 _0532_
*605 _0533_
*606 _0534_
*607 _0535_
*608 _0536_
*609 _0537_
*610 _0538_
*611 _0539_
*612 _0540_
*613 _0541_
*614 _0542_
*615 _0543_
*616 _0544_
*617 _0545_
*618 _0546_
*619 _0547_
*620 _0548_
*621 _0549_
*622 _0550_
*623 _0551_
*624 _0552_
*625 _0553_
*626 _0554_
*627 _0555_
*628 _0556_
*629 _0557_
*630 _0558_
*631 _0559_
*632 _0560_
*633 _0561_
*634 _0562_
*635 _0563_
*636 _0564_
*637 _0565_
*638 _0566_
*639 _0567_
*640 _0568_
*641 _0569_
*642 _0570_
*643 _0571_
*644 _0572_
*645 _0573_
*646 _0574_
*647 _0575_
*648 _0576_
*649 _0577_
*650 _0578_
*651 _0579_
*652 _0580_
*653 _0581_
*654 _0582_
*655 _0583_
*656 _0584_
*657 _0585_
*658 _0586_
*659 _0587_
*660 _0588_
*661 _0589_
*662 _0590_
*663 _0591_
*664 _0592_
*665 _0593_
*666 _0594_
*667 _0595_
*668 _0596_
*669 _0597_
*670 _0598_
*671 _0599_
*672 _0600_
*673 _0601_
*674 _0602_
*675 _0603_
*676 _0604_
*677 _0605_
*678 _0606_
*679 _0607_
*680 _0608_
*681 _0609_
*682 _0610_
*683 _0611_
*684 _0612_
*685 _0613_
*686 _0614_
*687 _0615_
*688 _0616_
*689 _0617_
*690 _0618_
*691 _0619_
*692 _0620_
*693 _0621_
*694 _0622_
*695 _0623_
*696 _0624_
*697 _0625_
*698 _0626_
*699 _0627_
*700 _0628_
*701 _0629_
*702 _0630_
*703 _0631_
*704 _0632_
*705 _0633_
*706 _0634_
*707 _0635_
*708 _0636_
*709 _0637_
*710 _0638_
*711 _0639_
*712 _0640_
*713 _0641_
*714 _0642_
*715 _0643_
*716 _0644_
*717 _0645_
*718 _0646_
*719 _0647_
*720 _0648_
*721 _0649_
*722 _0650_
*723 _0651_
*724 _0652_
*725 _0653_
*726 _0654_
*727 _0655_
*728 _0656_
*729 _0657_
*730 _0658_
*731 _0659_
*732 _0660_
*733 _0661_
*734 _0662_
*735 _0663_
*736 _0664_
*737 _0665_
*738 _0666_
*739 _0667_
*740 _0668_
*741 _0669_
*742 _0670_
*743 _0671_
*744 _0672_
*745 _0673_
*746 _0674_
*747 _0675_
*748 _0676_
*749 _0677_
*750 _0678_
*751 _0679_
*752 _0680_
*753 _0681_
*754 _0682_
*755 _0683_
*756 _0684_
*757 _0685_
*758 _0686_
*759 _0687_
*760 _0688_
*761 _0689_
*762 _0690_
*763 _0691_
*764 _0692_
*765 _0693_
*766 _0694_
*767 _0695_
*768 _0696_
*769 _0697_
*770 _0698_
*771 _0699_
*772 _0700_
*773 _0701_
*774 _0702_
*775 _0703_
*776 _0704_
*777 _0705_
*778 _0706_
*779 _0707_
*780 _0708_
*781 _0709_
*782 _0710_
*783 _0711_
*784 _0712_
*785 _0713_
*786 _0714_
*787 _0715_
*788 _0716_
*789 _0717_
*790 _0718_
*791 _0719_
*792 _0720_
*793 _0721_
*794 _0722_
*795 _0723_
*796 _0724_
*797 _0725_
*798 _0726_
*799 _0727_
*800 _0728_
*801 _0729_
*802 _0730_
*803 _0731_
*804 _0732_
*805 _0733_
*806 _0734_
*807 _0735_
*808 _0736_
*809 _0737_
*810 _0738_
*811 _0739_
*812 _0740_
*813 _0741_
*814 _0742_
*815 _0743_
*816 _0744_
*817 _0745_
*818 _0746_
*819 _0747_
*820 _0748_
*821 _0749_
*822 _0750_
*823 _0751_
*824 _0752_
*825 _0753_
*826 _0754_
*827 _0755_
*828 _0756_
*829 _0757_
*830 _0758_
*831 _0759_
*832 _0760_
*833 _0761_
*834 _0762_
*835 _0763_
*836 _0764_
*837 _0765_
*838 _0766_
*839 _0767_
*840 _0768_
*841 _0769_
*842 _0770_
*843 _0771_
*844 _0772_
*845 _0773_
*846 _0774_
*847 _0775_
*848 _0776_
*849 _0777_
*850 _0778_
*851 _0779_
*852 _0780_
*853 _0781_
*854 _0782_
*855 _0783_
*856 _0784_
*857 _0785_
*858 _0786_
*859 _0787_
*860 _0788_
*861 _0789_
*862 _0790_
*863 _0791_
*864 _0792_
*865 _0793_
*866 _0794_
*867 _0795_
*868 _0796_
*869 _0797_
*870 _0798_
*871 _0799_
*872 _0800_
*873 _0801_
*874 _0802_
*875 _0803_
*876 _0804_
*877 _0805_
*878 _0806_
*879 _0807_
*880 _0808_
*881 _0809_
*882 _0810_
*883 _0811_
*884 _0812_
*885 _0813_
*886 _0814_
*887 _0815_
*888 _0816_
*889 _0817_
*890 _0818_
*891 _0819_
*892 _0820_
*893 _0821_
*894 _0822_
*895 _0823_
*896 _0824_
*897 _0825_
*898 _0826_
*899 _0827_
*900 _0828_
*901 _0829_
*902 _0830_
*903 _0831_
*904 _0832_
*905 _0833_
*906 _0834_
*907 _0835_
*908 _0836_
*909 _0837_
*910 _0838_
*911 _0839_
*912 _0840_
*913 _0841_
*914 _0842_
*915 _0843_
*916 _0844_
*917 _0845_
*918 _0846_
*919 _0847_
*920 _0848_
*921 _0849_
*922 _0850_
*923 _0851_
*924 _0852_
*925 _0853_
*926 _0854_
*927 _0855_
*928 _0856_
*929 _0857_
*930 _0858_
*931 _0859_
*932 _0860_
*933 _0861_
*934 _0862_
*935 _0863_
*936 _0864_
*937 _0865_
*938 _0866_
*939 _0867_
*940 _0868_
*941 _0869_
*942 _0870_
*943 _0871_
*944 _0872_
*945 _0873_
*946 _0874_
*947 _0875_
*948 _0876_
*949 _0877_
*950 _0878_
*951 _0879_
*952 _0880_
*953 _0881_
*954 _0882_
*955 _0883_
*956 _0884_
*957 _0885_
*958 _0886_
*959 _0887_
*960 _0888_
*961 _0889_
*962 _0890_
*963 _0891_
*964 _0892_
*965 _0893_
*966 _0894_
*967 _0895_
*968 _0896_
*969 _0897_
*970 _0898_
*971 _0899_
*972 _0900_
*973 _0901_
*974 _0902_
*975 _0903_
*976 _0904_
*977 _0905_
*978 _0906_
*979 _0907_
*980 _0908_
*981 _0909_
*982 _0910_
*983 _0911_
*984 _0912_
*985 _0913_
*986 _0914_
*987 _0915_
*988 _0916_
*989 _0917_
*990 _0918_
*991 _0919_
*992 _0920_
*993 _0921_
*994 _0922_
*995 _0923_
*996 _0924_
*997 _0925_
*998 _0926_
*999 _0927_
*1000 _0928_
*1001 _0929_
*1002 _0930_
*1003 _0931_
*1004 _0932_
*1005 _0933_
*1006 _0934_
*1007 _0935_
*1008 _0936_
*1009 _0937_
*1010 _0938_
*1011 _0939_
*1012 _0940_
*1013 _0941_
*1014 _0942_
*1015 _0943_
*1016 _0944_
*1017 _0945_
*1018 _0946_
*1019 _0947_
*1020 _0948_
*1021 _0949_
*1022 _0950_
*1023 _0951_
*1024 _0952_
*1025 _0953_
*1026 _0954_
*1027 _0955_
*1028 _0956_
*1029 _0957_
*1030 _0958_
*1031 _0959_
*1032 _0960_
*1033 _0961_
*1034 _0962_
*1035 _0963_
*1036 _0964_
*1037 _0965_
*1038 _0966_
*1039 _0967_
*1040 _0968_
*1041 _0969_
*1042 _0970_
*1043 _0971_
*1044 _0972_
*1045 _0973_
*1046 _0974_
*1047 _0975_
*1048 _0976_
*1049 _0977_
*1050 _0978_
*1051 _0979_
*1052 _0980_
*1053 _0981_
*1054 _0982_
*1055 _0983_
*1056 _0984_
*1057 _0985_
*1058 _0986_
*1059 _0987_
*1060 _0988_
*1061 _0989_
*1062 _0990_
*1063 _0991_
*1064 _0992_
*1065 _0993_
*1066 _0994_
*1067 _0995_
*1068 _0996_
*1069 _0997_
*1070 _0998_
*1071 _0999_
*1072 _1000_
*1073 _1001_
*1074 _1002_
*1075 _1003_
*1076 _1004_
*1077 _1005_
*1078 _1006_
*1079 _1007_
*1080 _1008_
*1081 _1009_
*1082 _1010_
*1083 _1011_
*1084 _1012_
*1085 _1013_
*1086 _1014_
*1087 _1015_
*1088 _1016_
*1089 _1017_
*1090 _1018_
*1091 _1019_
*1092 _1020_
*1093 _1021_
*1094 _1022_
*1095 _1023_
*1096 _1024_
*1097 _1025_
*1098 _1026_
*1099 _1027_
*1100 _1028_
*1101 _1029_
*1102 _1030_
*1103 _1031_
*1104 _1032_
*1105 _1033_
*1106 _1034_
*1107 _1035_
*1108 _1036_
*1109 _1037_
*1110 _1038_
*1111 _1039_
*1112 _1040_
*1113 _1041_
*1114 _1042_
*1115 _1043_
*1116 _1044_
*1117 _1045_
*1118 _1046_
*1119 _1047_
*1120 _1048_
*1121 _1049_
*1122 _1050_
*1123 _1051_
*1124 _1052_
*1125 _1053_
*1126 _1054_
*1127 _1055_
*1128 _1056_
*1129 _1057_
*1130 _1058_
*1131 _1059_
*1132 _1060_
*1133 _1061_
*1134 _1062_
*1135 _1063_
*1136 _1064_
*1137 _1065_
*1138 _1066_
*1139 _1067_
*1140 _1068_
*1141 _1069_
*1142 _1070_
*1143 _1071_
*1144 _1072_
*1145 _1073_
*1146 _1074_
*1147 _1075_
*1148 _1076_
*1149 _1077_
*1150 _1078_
*1151 _1079_
*1152 _1080_
*1153 _1081_
*1154 _1082_
*1155 _1083_
*1156 _1084_
*1157 _1085_
*1158 _1086_
*1159 _1087_
*1160 _1088_
*1161 _1089_
*1162 _1090_
*1163 _1091_
*1164 _1092_
*1165 _1093_
*1166 _1094_
*1167 _1095_
*1168 _1096_
*1169 _1097_
*1170 _1098_
*1171 _1099_
*1172 _1100_
*1173 _1101_
*1174 _1102_
*1175 _1103_
*1176 _1104_
*1177 _1105_
*1178 _1106_
*1179 _1107_
*1180 _1108_
*1181 _1109_
*1182 _1110_
*1183 _1111_
*1184 _1112_
*1185 _1113_
*1186 _1114_
*1187 _1115_
*1188 _1116_
*1189 _1117_
*1190 _1118_
*1191 _1119_
*1192 _1120_
*1193 _1121_
*1194 _1122_
*1195 _1123_
*1196 _1124_
*1197 _1125_
*1198 _1126_
*1199 _1127_
*1200 _1128_
*1201 _1129_
*1202 _1130_
*1203 _1131_
*1204 _1132_
*1205 _1133_
*1206 _1134_
*1207 _1135_
*1208 _1136_
*1209 _1137_
*1210 _1138_
*1211 _1139_
*1212 _1140_
*1213 _1141_
*1214 _1142_
*1215 _1143_
*1216 _1144_
*1217 _1145_
*1218 _1146_
*1219 _1147_
*1220 _1148_
*1221 _1149_
*1222 _1150_
*1223 _1151_
*1224 _1152_
*1225 _1153_
*1226 _1154_
*1227 _1155_
*1228 _1156_
*1229 _1157_
*1230 _1158_
*1231 _1159_
*1232 _1160_
*1233 _1161_
*1234 _1162_
*1235 _1163_
*1236 _1164_
*1237 _1165_
*1238 _1166_
*1239 _1167_
*1240 _1168_
*1241 _1169_
*1242 _1170_
*1243 _1171_
*1244 _1172_
*1245 _1173_
*1246 _1174_
*1247 _1175_
*1248 _1176_
*1249 _1177_
*1250 _1178_
*1251 _1179_
*1252 _1180_
*1253 _1181_
*1254 _1182_
*1255 _1183_
*1256 _1184_
*1257 _1185_
*1258 _1186_
*1259 _1187_
*1260 _1188_
*1261 _1189_
*1262 _1190_
*1263 _1191_
*1264 _1192_
*1265 _1193_
*1266 _1194_
*1267 _1195_
*1268 _1196_
*1269 _1197_
*1270 _1198_
*1271 _1199_
*1272 _1200_
*1273 _1201_
*1274 _1202_
*1275 _1203_
*1276 _1204_
*1277 _1205_
*1278 _1206_
*1279 _1207_
*1280 _1208_
*1281 _1209_
*1282 _1210_
*1283 _1211_
*1284 _1212_
*1285 _1213_
*1286 _1214_
*1287 _1215_
*1288 _1216_
*1289 _1217_
*1290 _1218_
*1291 _1219_
*1292 _1220_
*1293 _1221_
*1294 _1222_
*1295 _1223_
*1296 _1224_
*1297 _1225_
*1298 _1226_
*1299 _1227_
*1300 _1228_
*1301 _1229_
*1302 _1230_
*1303 _1231_
*1304 _1232_
*1305 _1233_
*1306 _1234_
*1307 _1235_
*1308 _1236_
*1309 _1237_
*1310 _1238_
*1311 _1239_
*1312 _1240_
*1313 _1241_
*1314 _1242_
*1315 _1243_
*1316 _1244_
*1317 _1245_
*1318 _1246_
*1319 _1247_
*1320 _1248_
*1321 _1249_
*1322 _1250_
*1323 _1251_
*1324 _1252_
*1325 _1253_
*1326 _1254_
*1327 _1255_
*1328 _1256_
*1329 _1257_
*1330 _1258_
*1331 _1259_
*1332 _1260_
*1333 _1261_
*1334 _1262_
*1335 _1263_
*1336 _1264_
*1337 _1265_
*1338 _1266_
*1339 _1267_
*1340 _1268_
*1341 _1269_
*1342 _1270_
*1343 _1271_
*1344 _1272_
*1345 _1273_
*1346 _1274_
*1347 _1275_
*1348 _1276_
*1349 _1277_
*1350 _1278_
*1351 _1279_
*1352 _1280_
*1353 _1281_
*1354 _1282_
*1355 _1283_
*1356 _1284_
*1357 _1285_
*1358 _1286_
*1359 _1287_
*1360 _1288_
*1361 _1289_
*1362 _1290_
*1363 _1291_
*1364 _1292_
*1365 _1293_
*1366 _1294_
*1367 _1295_
*1368 _1296_
*1369 _1297_
*1370 _1298_
*1371 _1299_
*1372 _1300_
*1373 _1301_
*1374 _1302_
*1375 _1303_
*1376 _1304_
*1377 _1305_
*1378 _1306_
*1379 _1307_
*1380 _1308_
*1381 _1309_
*1382 _1310_
*1383 _1311_
*1384 _1312_
*1385 _1313_
*1386 _1314_
*1387 _1315_
*1388 _1316_
*1389 _1317_
*1390 _1318_
*1391 _1319_
*1392 _1320_
*1393 _1321_
*1394 _1322_
*1395 _1323_
*1396 _1324_
*1397 _1325_
*1398 _1326_
*1399 _1327_
*1400 _1328_
*1401 _1329_
*1402 _1330_
*1403 _1331_
*1404 _1332_
*1405 _1333_
*1406 _1334_
*1407 _1335_
*1408 _1336_
*1409 _1337_
*1410 _1338_
*1411 _1339_
*1412 _1340_
*1413 _1341_
*1414 _1342_
*1415 _1343_
*1416 _1344_
*1417 _1345_
*1418 _1346_
*1419 _1347_
*1420 _1348_
*1421 _1349_
*1422 _1350_
*1423 _1351_
*1424 _1352_
*1425 _1353_
*1426 _1354_
*1427 _1355_
*1428 _1356_
*1429 a\[0\]\[0\]
*1430 a\[0\]\[1\]
*1431 a\[0\]\[2\]
*1432 a\[0\]\[3\]
*1433 a\[0\]\[4\]
*1434 a\[0\]\[5\]
*1435 a\[0\]\[6\]
*1436 a\[0\]\[7\]
*1437 a\[1\]\[0\]
*1438 a\[1\]\[1\]
*1439 a\[1\]\[2\]
*1440 a\[1\]\[3\]
*1441 a\[1\]\[4\]
*1442 a\[1\]\[5\]
*1443 a\[1\]\[6\]
*1444 a\[1\]\[7\]
*1445 b\[0\]\[0\]
*1446 b\[0\]\[1\]
*1447 b\[0\]\[2\]
*1448 b\[0\]\[3\]
*1449 b\[0\]\[4\]
*1450 b\[0\]\[5\]
*1451 b\[0\]\[6\]
*1452 b\[0\]\[7\]
*1453 b\[1\]\[0\]
*1454 b\[1\]\[1\]
*1455 b\[1\]\[2\]
*1456 b\[1\]\[3\]
*1457 b\[1\]\[4\]
*1458 b\[1\]\[5\]
*1459 b\[1\]\[6\]
*1460 b\[1\]\[7\]
*1461 bflip
*1462 c\[0\]\[0\]
*1463 c\[0\]\[1\]
*1464 c\[0\]\[2\]
*1465 c\[0\]\[3\]
*1466 c\[0\]\[4\]
*1467 c\[0\]\[5\]
*1468 c\[0\]\[6\]
*1469 c\[0\]\[7\]
*1470 clknet_0_clk
*1471 clknet_1_0__leaf_clk
*1472 clknet_1_1__leaf_clk
*1473 delta_t\[0\]
*1474 delta_t\[1\]
*1475 delta_t\[2\]
*1476 delta_t\[3\]
*1477 delta_t\[4\]
*1478 delta_t\[5\]
*1479 delta_t\[6\]
*1480 delta_t\[7\]
*1481 delta_t\[8\]
*1482 delta_t\[9\]
*1483 net1
*1484 net10
*1485 net100
*1486 net11
*1487 net12
*1488 net13
*1489 net14
*1490 net15
*1491 net16
*1492 net17
*1493 net18
*1494 net19
*1495 net2
*1496 net20
*1497 net21
*1498 net22
*1499 net23
*1500 net24
*1501 net25
*1502 net26
*1503 net27
*1504 net28
*1505 net29
*1506 net3
*1507 net30
*1508 net31
*1509 net32
*1510 net33
*1511 net34
*1512 net35
*1513 net36
*1514 net37
*1515 net38
*1516 net39
*1517 net4
*1518 net40
*1519 net41
*1520 net42
*1521 net43
*1522 net44
*1523 net45
*1524 net46
*1525 net47
*1526 net48
*1527 net49
*1528 net5
*1529 net50
*1530 net51
*1531 net52
*1532 net53
*1533 net54
*1534 net55
*1535 net56
*1536 net57
*1537 net58
*1538 net59
*1539 net6
*1540 net60
*1541 net61
*1542 net62
*1543 net63
*1544 net64
*1545 net65
*1546 net66
*1547 net67
*1548 net68
*1549 net69
*1550 net7
*1551 net70
*1552 net71
*1553 net72
*1554 net73
*1555 net74
*1556 net75
*1557 net76
*1558 net77
*1559 net78
*1560 net79
*1561 net8
*1562 net80
*1563 net81
*1564 net82
*1565 net83
*1566 net84
*1567 net85
*1568 net86
*1569 net87
*1570 net88
*1571 net89
*1572 net9
*1573 net90
*1574 net91
*1575 net92
*1576 net93
*1577 net94
*1578 net95
*1579 net96
*1580 net97
*1581 net98
*1582 net99
*1583 t_reg\[0\]
*1584 t_reg\[1\]
*1585 t_reg\[2\]
*1586 t_reg\[3\]
*1587 t_reg\[4\]
*1588 t_reg\[5\]
*1589 t_reg\[6\]
*1590 t_reg\[7\]
*1591 t_reg\[8\]
*1592 t_reg\[9\]
*1593 ANTENNA__1361__I
*1594 ANTENNA__1366__A2
*1595 ANTENNA__1368__A2
*1596 ANTENNA__1371__A1
*1597 ANTENNA__1373__A2
*1598 ANTENNA__1375__I
*1599 ANTENNA__1377__A2
*1600 ANTENNA__1379__A2
*1601 ANTENNA__1382__A1
*1602 ANTENNA__1384__A1
*1603 ANTENNA__1386__I
*1604 ANTENNA__1391__A1
*1605 ANTENNA__1391__A2
*1606 ANTENNA__1395__I
*1607 ANTENNA__1399__A1
*1608 ANTENNA__1399__A2
*1609 ANTENNA__1400__A1
*1610 ANTENNA__1400__A2
*1611 ANTENNA__1402__A1
*1612 ANTENNA__1402__A2
*1613 ANTENNA__1423__A3
*1614 ANTENNA__1425__I
*1615 ANTENNA__1441__A2
*1616 ANTENNA__1442__A2
*1617 ANTENNA__1449__I
*1618 ANTENNA__1453__I
*1619 ANTENNA__1460__I
*1620 ANTENNA__1463__I
*1621 ANTENNA__1481__A1
*1622 ANTENNA__1504__A1
*1623 ANTENNA__1504__A2
*1624 ANTENNA__1511__A2
*1625 ANTENNA__1521__B2
*1626 ANTENNA__1534__I
*1627 ANTENNA__1543__A1
*1628 ANTENNA__1547__A1
*1629 ANTENNA__1548__A2
*1630 ANTENNA__1555__A1
*1631 ANTENNA__1575__A2
*1632 ANTENNA__1576__A1
*1633 ANTENNA__1576__A2
*1634 ANTENNA__1583__I
*1635 ANTENNA__1584__I
*1636 ANTENNA__1597__A1
*1637 ANTENNA__1597__A2
*1638 ANTENNA__1600__I
*1639 ANTENNA__1602__A1
*1640 ANTENNA__1610__A2
*1641 ANTENNA__1611__A2
*1642 ANTENNA__1614__I
*1643 ANTENNA__1616__A1
*1644 ANTENNA__1620__A2
*1645 ANTENNA__1626__A2
*1646 ANTENNA__1642__I
*1647 ANTENNA__1644__A2
*1648 ANTENNA__1646__A2
*1649 ANTENNA__1649__A2
*1650 ANTENNA__1653__A1
*1651 ANTENNA__1653__A2
*1652 ANTENNA__1654__A1
*1653 ANTENNA__1666__A1
*1654 ANTENNA__1666__A2
*1655 ANTENNA__1668__I
*1656 ANTENNA__1669__A1
*1657 ANTENNA__1669__A2
*1658 ANTENNA__1679__A1
*1659 ANTENNA__1686__A1
*1660 ANTENNA__1702__A1
*1661 ANTENNA__1707__A1
*1662 ANTENNA__1713__A1
*1663 ANTENNA__1718__A2
*1664 ANTENNA__1724__A2
*1665 ANTENNA__1724__A3
*1666 ANTENNA__1730__I
*1667 ANTENNA__1739__A1
*1668 ANTENNA__1741__A1
*1669 ANTENNA__1741__A2
*1670 ANTENNA__1743__A1
*1671 ANTENNA__1743__A2
*1672 ANTENNA__1753__A1
*1673 ANTENNA__1753__A2
*1674 ANTENNA__1755__I
*1675 ANTENNA__1756__A1
*1676 ANTENNA__1756__A2
*1677 ANTENNA__1761__A1
*1678 ANTENNA__1761__A2
*1679 ANTENNA__1778__I
*1680 ANTENNA__1779__A1
*1681 ANTENNA__1780__A2
*1682 ANTENNA__1781__I
*1683 ANTENNA__1793__B2
*1684 ANTENNA__1803__A1
*1685 ANTENNA__1808__I
*1686 ANTENNA__1809__A2
*1687 ANTENNA__1812__A2
*1688 ANTENNA__1826__A1
*1689 ANTENNA__1827__A1
*1690 ANTENNA__1832__A2
*1691 ANTENNA__1833__A1
*1692 ANTENNA__1834__A1
*1693 ANTENNA__1834__A2
*1694 ANTENNA__1837__A1
*1695 ANTENNA__1837__A2
*1696 ANTENNA__1841__A1
*1697 ANTENNA__1842__A1
*1698 ANTENNA__1856__I
*1699 ANTENNA__1857__I
*1700 ANTENNA__1858__A1
*1701 ANTENNA__1860__A1
*1702 ANTENNA__1880__A2
*1703 ANTENNA__1881__I
*1704 ANTENNA__1882__A2
*1705 ANTENNA__1892__I
*1706 ANTENNA__1893__A1
*1707 ANTENNA__1902__A2
*1708 ANTENNA__1904__A2
*1709 ANTENNA__1909__A1
*1710 ANTENNA__1909__A2
*1711 ANTENNA__1911__A1
*1712 ANTENNA__1918__A1
*1713 ANTENNA__1919__A2
*1714 ANTENNA__1922__A1
*1715 ANTENNA__1923__A2
*1716 ANTENNA__1945__A1
*1717 ANTENNA__1949__A1
*1718 ANTENNA__1949__A2
*1719 ANTENNA__1967__A2
*1720 ANTENNA__1975__B
*1721 ANTENNA__1977__A2
*1722 ANTENNA__1986__A1
*1723 ANTENNA__1992__I
*1724 ANTENNA__1994__I
*1725 ANTENNA__1996__A2
*1726 ANTENNA__1998__A1
*1727 ANTENNA__2003__A1
*1728 ANTENNA__2003__A2
*1729 ANTENNA__2004__A1
*1730 ANTENNA__2005__A1
*1731 ANTENNA__2007__A1
*1732 ANTENNA__2008__A1
*1733 ANTENNA__2012__A1
*1734 ANTENNA__2017__A1
*1735 ANTENNA__2032__A1
*1736 ANTENNA__2035__A2
*1737 ANTENNA__2041__A1
*1738 ANTENNA__2045__A1
*1739 ANTENNA__2045__A2
*1740 ANTENNA__2045__A3
*1741 ANTENNA__2047__A2
*1742 ANTENNA__2049__A1
*1743 ANTENNA__2049__A2
*1744 ANTENNA__2055__A2
*1745 ANTENNA__2059__A1
*1746 ANTENNA__2063__A1
*1747 ANTENNA__2071__A1
*1748 ANTENNA__2073__I
*1749 ANTENNA__2077__A1
*1750 ANTENNA__2082__A1
*1751 ANTENNA__2086__A1
*1752 ANTENNA__2089__A1
*1753 ANTENNA__2090__A2
*1754 ANTENNA__2091__A2
*1755 ANTENNA__2099__A2
*1756 ANTENNA__2103__A1
*1757 ANTENNA__2110__A2
*1758 ANTENNA__2121__A1
*1759 ANTENNA__2124__I
*1760 ANTENNA__2125__A1
*1761 ANTENNA__2125__A2
*1762 ANTENNA__2126__I
*1763 ANTENNA__2127__I
*1764 ANTENNA__2134__A3
*1765 ANTENNA__2164__A1
*1766 ANTENNA__2181__I
*1767 ANTENNA__2183__I
*1768 ANTENNA__2185__I
*1769 ANTENNA__2186__A1
*1770 ANTENNA__2188__A1
*1771 ANTENNA__2191__A1
*1772 ANTENNA__2191__A2
*1773 ANTENNA__2191__A3
*1774 ANTENNA__2197__A1
*1775 ANTENNA__2199__I
*1776 ANTENNA__2200__A1
*1777 ANTENNA__2201__A2
*1778 ANTENNA__2202__I
*1779 ANTENNA__2207__A2
*1780 ANTENNA__2212__A1
*1781 ANTENNA__2212__B2
*1782 ANTENNA__2214__A1
*1783 ANTENNA__2226__A1
*1784 ANTENNA__2227__I
*1785 ANTENNA__2234__A1
*1786 ANTENNA__2236__A2
*1787 ANTENNA__2262__I
*1788 ANTENNA__2263__A1
*1789 ANTENNA__2264__A1
*1790 ANTENNA__2265__A1
*1791 ANTENNA__2265__A2
*1792 ANTENNA__2272__A1
*1793 ANTENNA__2272__A2
*1794 ANTENNA__2274__I
*1795 ANTENNA__2276__A1
*1796 ANTENNA__2276__A2
*1797 ANTENNA__2283__A1
*1798 ANTENNA__2284__A1
*1799 ANTENNA__2291__A1
*1800 ANTENNA__2291__A2
*1801 ANTENNA__2293__A2
*1802 ANTENNA__2294__A1
*1803 ANTENNA__2297__A1
*1804 ANTENNA__2298__A1
*1805 ANTENNA__2305__A1
*1806 ANTENNA__2309__A2
*1807 ANTENNA__2310__A2
*1808 ANTENNA__2311__A1
*1809 ANTENNA__2313__A1
*1810 ANTENNA__2314__A1
*1811 ANTENNA__2314__A2
*1812 ANTENNA__2315__A2
*1813 ANTENNA__2319__A1
*1814 ANTENNA__2335__A1
*1815 ANTENNA__2346__A1
*1816 ANTENNA__2347__A1
*1817 ANTENNA__2354__A1
*1818 ANTENNA__2354__A2
*1819 ANTENNA__2357__A1
*1820 ANTENNA__2357__A2
*1821 ANTENNA__2360__A2
*1822 ANTENNA__2369__A1
*1823 ANTENNA__2369__A2
*1824 ANTENNA__2370__A2
*1825 ANTENNA__2371__A1
*1826 ANTENNA__2373__A1
*1827 ANTENNA__2373__A2
*1828 ANTENNA__2376__I
*1829 ANTENNA__2379__A1
*1830 ANTENNA__2391__I
*1831 ANTENNA__2392__A1
*1832 ANTENNA__2392__A2
*1833 ANTENNA__2393__I
*1834 ANTENNA__2400__A1
*1835 ANTENNA__2401__B
*1836 ANTENNA__2402__A3
*1837 ANTENNA__2403__A1
*1838 ANTENNA__2405__I
*1839 ANTENNA__2408__A1
*1840 ANTENNA__2408__B
*1841 ANTENNA__2423__A1
*1842 ANTENNA__2424__A1
*1843 ANTENNA__2424__A2
*1844 ANTENNA__2425__A1
*1845 ANTENNA__2425__A2
*1846 ANTENNA__2434__A1
*1847 ANTENNA__2435__A1
*1848 ANTENNA__2437__A1
*1849 ANTENNA__2441__A1
*1850 ANTENNA__2442__A1
*1851 ANTENNA__2442__A2
*1852 ANTENNA__2444__I
*1853 ANTENNA__2445__A1
*1854 ANTENNA__2446__A2
*1855 ANTENNA__2447__A1
*1856 ANTENNA__2450__A1
*1857 ANTENNA__2467__A1
*1858 ANTENNA__2467__A2
*1859 ANTENNA__2468__A2
*1860 ANTENNA__2470__A1
*1861 ANTENNA__2474__A1
*1862 ANTENNA__2474__A2
*1863 ANTENNA__2493__A1
*1864 ANTENNA__2498__A2
*1865 ANTENNA__2512__A1
*1866 ANTENNA__2516__I
*1867 ANTENNA__2517__I
*1868 ANTENNA__2518__I
*1869 ANTENNA__2519__A2
*1870 ANTENNA__2520__A3
*1871 ANTENNA__2520__A4
*1872 ANTENNA__2521__A1
*1873 ANTENNA__2524__C
*1874 ANTENNA__2525__A1
*1875 ANTENNA__2526__C
*1876 ANTENNA__2527__A1
*1877 ANTENNA__2527__A2
*1878 ANTENNA__2528__A1
*1879 ANTENNA__2528__A2
*1880 ANTENNA__2536__A1
*1881 ANTENNA__2538__I
*1882 ANTENNA__2542__A1
*1883 ANTENNA__2543__C
*1884 ANTENNA__2544__A1
*1885 ANTENNA__2548__A1
*1886 ANTENNA__2550__A1
*1887 ANTENNA__2552__A1
*1888 ANTENNA__2555__A1
*1889 ANTENNA__2557__A1
*1890 ANTENNA__2559__A1
*1891 ANTENNA__2559__C
*1892 ANTENNA__2561__A2
*1893 ANTENNA__2562__I
*1894 ANTENNA__2565__C
*1895 ANTENNA__2566__I
*1896 ANTENNA__2567__A1
*1897 ANTENNA__2570__A1
*1898 ANTENNA__2571__A1
*1899 ANTENNA__2571__C
*1900 ANTENNA__2572__A1
*1901 ANTENNA__2573__A1
*1902 ANTENNA__2573__C
*1903 ANTENNA__2575__A1
*1904 ANTENNA__2577__A1
*1905 ANTENNA__2579__A1
*1906 ANTENNA__2581__A1
*1907 ANTENNA__2581__C
*1908 ANTENNA__2582__A1
*1909 ANTENNA__2583__A1
*1910 ANTENNA__2583__C
*1911 ANTENNA__2584__A1
*1912 ANTENNA__2585__A1
*1913 ANTENNA__2585__C
*1914 ANTENNA__2587__A1
*1915 ANTENNA__2589__A1
*1916 ANTENNA__2590__A1
*1917 ANTENNA__2592__I
*1918 ANTENNA__2594__A3
*1919 ANTENNA__2597__C
*1920 ANTENNA__2611__A1
*1921 ANTENNA__2612__I
*1922 ANTENNA__2615__A1
*1923 ANTENNA__2618__A1
*1924 ANTENNA__2621__A1
*1925 ANTENNA__2623__I
*1926 ANTENNA__2627__A2
*1927 ANTENNA__2630__A1
*1928 ANTENNA__2631__I
*1929 ANTENNA__2632__A2
*1930 ANTENNA__2633__A2
*1931 ANTENNA__2634__A1
*1932 ANTENNA__2635__A2
*1933 ANTENNA__2636__A2
*1934 ANTENNA__2637__A1
*1935 ANTENNA__2638__A2
*1936 ANTENNA__2639__A2
*1937 ANTENNA__2640__A1
*1938 ANTENNA__2641__A2
*1939 ANTENNA__2643__A1
*1940 ANTENNA__2645__A1
*1941 ANTENNA__2646__I
*1942 ANTENNA__2648__A1
*1943 ANTENNA__2649__A1
*1944 ANTENNA__2652__A1
*1945 ANTENNA__2655__A1
*1946 ANTENNA__2660__C
*1947 ANTENNA__2662__I
*1948 ANTENNA__2675__A1
*1949 ANTENNA__2677__A2
*1950 ANTENNA__2678__A1
*1951 ANTENNA__2680__B
*1952 ANTENNA__2681__A2
*1953 ANTENNA__2682__A1
*1954 ANTENNA__2683__B
*1955 ANTENNA__2684__A2
*1956 ANTENNA__2685__A1
*1957 ANTENNA__2686__B
*1958 ANTENNA__2689__A1
*1959 ANTENNA__2690__A1
*1960 ANTENNA__2690__C
*1961 ANTENNA__2691__A1
*1962 ANTENNA__2694__A1
*1963 ANTENNA__2695__B
*1964 ANTENNA__2696__A1
*1965 ANTENNA__2697__A1
*1966 ANTENNA__2701__A1
*1967 ANTENNA__2702__A1
*1968 ANTENNA__2704__A1
*1969 ANTENNA__2705__A1
*1970 ANTENNA__2707__A1
*1971 ANTENNA__2708__C
*1972 ANTENNA__2710__A1
*1973 ANTENNA__2712__A1
*1974 ANTENNA__2713__A1
*1975 ANTENNA__2714__B
*1976 ANTENNA__2717__CLK
*1977 ANTENNA__2718__CLK
*1978 ANTENNA__2719__CLK
*1979 ANTENNA__2720__CLK
*1980 ANTENNA__2721__CLK
*1981 ANTENNA__2722__CLK
*1982 ANTENNA__2723__CLK
*1983 ANTENNA__2724__CLK
*1984 ANTENNA__2725__CLK
*1985 ANTENNA__2726__CLK
*1986 ANTENNA__2727__CLK
*1987 ANTENNA__2728__CLK
*1988 ANTENNA__2729__CLK
*1989 ANTENNA__2730__CLK
*1990 ANTENNA__2731__CLK
*1991 ANTENNA__2732__CLK
*1992 ANTENNA__2733__CLK
*1993 ANTENNA__2734__CLK
*1994 ANTENNA__2735__CLK
*1995 ANTENNA__2736__CLK