*SPEF "ieee 1481-1999"
*DESIGN "interp_tri"
*DATE "11:11:11 Fri 11 11, 1111"
*VENDOR "OpenRCX"
*PROGRAM "Parallel Extraction"
*VERSION "1.0"
*DESIGN_FLOW "NAME_SCOPE LOCAL" "PIN_CAP NONE"
*DIVIDER /
*DELIMITER :
*BUS_DELIMITER []
*T_UNIT 1 NS
*C_UNIT 1 PF
*R_UNIT 1 OHM
*L_UNIT 1 HENRY

*NAME_MAP
*1 active
*2 clk
*5 wb_clk_i
*6 wb_rst_i
*7 wbs_ack_o
*8 wbs_adr_i[2]
*9 wbs_adr_i[3]
*10 wbs_cyc_i
*11 wbs_dat_i[0]
*12 wbs_dat_i[10]
*13 wbs_dat_i[11]
*14 wbs_dat_i[12]
*15 wbs_dat_i[13]
*16 wbs_dat_i[14]
*17 wbs_dat_i[15]
*18 wbs_dat_i[16]
*19 wbs_dat_i[17]
*20 wbs_dat_i[18]
*21 wbs_dat_i[19]
*22 wbs_dat_i[1]
*23 wbs_dat_i[20]
*24 wbs_dat_i[21]
*25 wbs_dat_i[22]
*26 wbs_dat_i[23]
*27 wbs_dat_i[24]
*28 wbs_dat_i[25]
*29 wbs_dat_i[26]
*30 wbs_dat_i[27]
*31 wbs_dat_i[28]
*32 wbs_dat_i[29]
*33 wbs_dat_i[2]
*34 wbs_dat_i[30]
*35 wbs_dat_i[31]
*36 wbs_dat_i[3]
*37 wbs_dat_i[4]
*38 wbs_dat_i[5]
*39 wbs_dat_i[6]
*40 wbs_dat_i[7]
*41 wbs_dat_i[8]
*42 wbs_dat_i[9]
*43 wbs_dat_o[0]
*44 net97
*45 net98
*46 net99
*47 net100
*48 net101
*49 net102
*50 wbs_dat_o[16]
*51 wbs_dat_o[17]
*52 wbs_dat_o[18]
*53 wbs_dat_o[19]
*54 wbs_dat_o[1]
*55 wbs_dat_o[20]
*56 wbs_dat_o[21]
*57 wbs_dat_o[22]
*58 wbs_dat_o[23]
*59 net103
*60 net104
*61 net105
*62 net106
*63 net107
*64 net108
*65 wbs_dat_o[2]
*66 net109
*67 net110
*68 wbs_dat_o[3]
*69 wbs_dat_o[4]
*70 wbs_dat_o[5]
*71 wbs_dat_o[6]
*72 wbs_dat_o[7]
*73 wbs_dat_o[8]
*74 wbs_dat_o[9]
*75 wbs_sel_i[0]
*76 wbs_sel_i[1]
*77 wbs_sel_i[2]
*78 wbs_sel_i[3]
*79 wbs_stb_i
*80 wbs_we_i
*81 x_end[0]
*82 x_end[1]
*83 x_end[2]
*84 x_end[3]
*85 x_end[4]
*86 x_end[5]
*87 x_end[6]
*88 x_end[7]
*89 x_start[0]
*90 x_start[1]
*91 x_start[2]
*92 x_start[3]
*93 x_start[4]
*94 x_start[5]
*95 x_start[6]
*96 x_start[7]
*97 y[0]
*98 y[1]
*99 y[2]
*100 y[3]
*101 y[4]
*102 y[5]
*103 y[6]
*104 y[7]
*105 _0000_
*106 _0001_
*107 _0002_
*108 _0003_
*109 _0004_
*110 _0005_
*111 _0006_
*112 _0007_
*113 _0008_
*114 _0009_
*115 _0010_
*116 _0011_
*117 _0012_
*118 _0013_
*119 _0014_
*120 _0015_
*121 _0016_
*122 _0017_
*123 _0018_
*124 _0019_
*125 _0020_
*126 _0021_
*127 _0022_
*128 _0023_
*129 _0024_
*130 _0025_
*131 _0026_
*132 _0027_
*133 _0028_
*134 _0029_
*135 _0030_
*136 _0031_
*137 _0032_
*138 _0033_
*139 _0034_
*140 _0035_
*141 _0036_
*142 _0037_
*143 _0038_
*144 _0039_
*145 _0040_
*146 _0041_
*147 _0042_
*148 _0043_
*149 _0044_
*150 _0045_
*151 _0046_
*152 _0047_
*153 _0048_
*154 _0049_
*155 _0050_
*156 _0051_
*157 _0052_
*158 _0053_
*159 _0054_
*160 _0055_
*161 _0056_
*162 _0057_
*163 _0058_
*164 _0059_
*165 _0060_
*166 _0061_
*167 _0062_
*168 _0063_
*169 _0064_
*170 _0065_
*171 _0066_
*172 _0067_
*173 _0068_
*174 _0069_
*175 _0070_
*176 _0071_
*177 _0072_
*178 _0073_
*179 _0074_
*180 _0075_
*181 _0076_
*182 _0077_
*183 _0078_
*184 _0079_
*185 _0080_
*186 _0081_
*187 _0082_
*188 _0083_
*189 _0084_
*190 _0085_
*191 _0086_
*192 _0087_
*193 _0088_
*194 _0089_
*195 _0090_
*196 _0091_
*197 _0092_
*198 _0093_
*199 _0094_
*200 _0095_
*201 _0096_
*202 _0097_
*203 _0098_
*204 _0099_
*205 _0100_
*206 _0101_
*207 _0102_
*208 _0103_
*209 _0104_
*210 _0105_
*211 _0106_
*212 _0107_
*213 _0108_
*214 _0109_
*215 _0110_
*216 _0111_
*217 _0112_
*218 _0113_
*219 _0114_
*220 _0115_
*221 _0116_
*222 _0117_
*223 _0118_
*224 _0119_
*225 _0120_
*226 _0121_
*227 _0122_
*228 _0123_
*229 _0124_
*230 _0125_
*231 _0126_
*232 _0127_
*233 _0128_
*234 _0129_
*235 _0130_
*236 _0131_
*237 _0132_
*238 _0133_
*239 _0134_
*240 _0135_
*241 _0136_
*242 _0137_
*243 _0138_
*244 _0139_
*245 _0140_
*246 _0141_
*247 _0142_
*248 _0143_
*249 _0144_
*250 _0145_
*251 _0146_
*252 _0147_
*253 _0148_
*254 _0149_
*255 _0150_
*256 _0151_
*257 _0152_
*258 _0153_
*259 _0154_
*260 _0155_
*261 _0156_
*262 _0157_
*263 _0158_
*264 _0159_
*265 _0160_
*266 _0161_
*267 _0162_
*268 _0163_
*269 _0164_
*270 _0165_
*271 _0166_
*272 _0167_
*273 _0168_
*274 _0169_
*275 _0170_
*276 _0171_
*277 _0172_
*278 _0173_
*279 _0174_
*280 _0175_
*281 _0176_
*282 _0177_
*283 _0178_
*284 _0179_
*285 _0180_
*286 _0181_
*287 _0182_
*288 _0183_
*289 _0184_
*290 _0185_
*291 _0186_
*292 _0187_
*293 _0188_
*294 _0189_
*295 _0190_
*296 _0191_
*297 _0192_
*298 _0193_
*299 _0194_
*300 _0195_
*301 _0196_
*302 _0197_
*303 _0198_
*304 _0199_
*305 _0200_
*306 _0201_
*307 _0202_
*308 _0203_
*309 _0204_
*310 _0205_
*311 _0206_
*312 _0207_
*313 _0208_
*314 _0209_
*315 _0210_
*316 _0211_
*317 _0212_
*318 _0213_
*319 _0214_
*320 _0215_
*321 _0216_
*322 _0217_
*323 _0218_
*324 _0219_
*325 _0220_
*326 _0221_
*327 _0222_
*328 _0223_
*329 _0224_
*330 _0225_
*331 _0226_
*332 _0227_
*333 _0228_
*334 _0229_
*335 _0230_
*336 _0231_
*337 _0232_
*338 _0233_
*339 _0234_
*340 _0235_
*341 _0236_
*342 _0237_
*343 _0238_
*344 _0239_
*345 _0240_
*346 _0241_
*347 _0242_
*348 _0243_
*349 _0244_
*350 _0245_
*351 _0246_
*352 _0247_
*353 _0248_
*354 _0249_
*355 _0250_
*356 _0251_
*357 _0252_
*358 _0253_
*359 _0254_
*360 _0255_
*361 _0256_
*362 _0257_
*363 _0258_
*364 _0259_
*365 _0260_
*366 _0261_
*367 _0262_
*368 _0263_
*369 _0264_
*370 _0265_
*371 _0266_
*372 _0267_
*373 _0268_
*374 _0269_
*375 _0270_
*376 _0271_
*377 _0272_
*378 _0273_
*379 _0274_
*380 _0275_
*381 _0276_
*382 _0277_
*383 _0278_
*384 _0279_
*385 _0280_
*386 _0281_
*387 _0282_
*388 _0283_
*389 _0284_
*390 _0285_
*391 _0286_
*392 _0287_
*393 _0288_
*394 _0289_
*395 _0290_
*396 _0291_
*397 _0292_
*398 _0293_
*399 _0294_
*400 _0295_
*401 _0296_
*402 _0297_
*403 _0298_
*404 _0299_
*405 _0300_
*406 _0301_
*407 _0302_
*408 _0303_
*409 _0304_
*410 _0305_
*411 _0306_
*412 _0307_
*413 _0308_
*414 _0309_
*415 _0310_
*416 _0311_
*417 _0312_
*418 _0313_
*419 _0314_
*420 _0315_
*421 _0316_
*422 _0317_
*423 _0318_
*424 _0319_
*425 _0320_
*426 _0321_
*427 _0322_
*428 _0323_
*429 _0324_
*430 _0325_
*431 _0326_
*432 _0327_
*433 _0328_
*434 _0329_
*435 _0330_
*436 _0331_
*437 _0332_
*438 _0333_
*439 _0334_
*440 _0335_
*441 _0336_
*442 _0337_
*443 _0338_
*444 _0339_
*445 _0340_
*446 _0341_
*447 _0342_
*448 _0343_
*449 _0344_
*450 _0345_
*451 _0346_
*452 _0347_
*453 _0348_
*454 _0349_
*455 _0350_
*456 _0351_
*457 _0352_
*458 _0353_
*459 _0354_
*460 _0355_
*461 _0356_
*462 _0357_
*463 _0358_
*464 _0359_
*465 _0360_
*466 _0361_
*467 _0362_
*468 _0363_
*469 _0364_
*470 _0365_
*471 _0366_
*472 _0367_
*473 _0368_
*474 _0369_
*475 _0370_
*476 _0371_
*477 _0372_
*478 _0373_
*479 _0374_
*480 _0375_
*481 _0376_
*482 _0377_
*483 _0378_
*484 _0379_
*485 _0380_
*486 _0381_
*487 _0382_
*488 _0383_
*489 _0384_
*490 _0385_
*491 _0386_
*492 _0387_
*493 _0388_
*494 _0389_
*495 _0390_
*496 _0391_
*497 _0392_
*498 _0393_
*499 _0394_
*500 _0395_
*501 _0396_
*502 _0397_
*503 _0398_
*504 _0399_
*505 _0400_
*506 _0401_
*507 _0402_
*508 _0403_
*509 _0404_
*510 _0405_
*511 _0406_
*512 _0407_
*513 _0408_
*514 _0409_
*515 _0410_
*516 _0411_
*517 _0412_
*518 _0413_
*519 _0414_
*520 _0415_
*521 _0416_
*522 _0417_
*523 _0418_
*524 _0419_
*525 _0420_
*526 _0421_
*527 _0422_
*528 _0423_
*529 _0424_
*530 _0425_
*531 _0426_
*532 _0427_
*533 _0428_
*534 _0429_
*535 _0430_
*536 _0431_
*537 _0432_
*538 _0433_
*539 _0434_
*540 _0435_
*541 _0436_
*542 _0437_
*543 _0438_
*544 _0439_
*545 _0440_
*546 _0441_
*547 _0442_
*548 _0443_
*549 _0444_
*550 _0445_
*551 _0446_
*552 _0447_
*553 _0448_
*554 _0449_
*555 _0450_
*556 _0451_
*557 _0452_
*558 _0453_
*559 _0454_
*560 _0455_
*561 _0456_
*562 _0457_
*563 _0458_
*564 _0459_
*565 _0460_
*566 _0461_
*567 _0462_
*568 _0463_
*569 _0464_
*570 _0465_
*571 _0466_
*572 _0467_
*573 _0468_
*574 _0469_
*575 _0470_
*576 _0471_
*577 _0472_
*578 _0473_
*579 _0474_
*580 _0475_
*581 _0476_
*582 _0477_
*583 _0478_
*584 _0479_
*585 _0480_
*586 _0481_
*587 _0482_
*588 _0483_
*589 _0484_
*590 _0485_
*591 _0486_
*592 _0487_
*593 _0488_
*594 _0489_
*595 _0490_
*596 _0491_
*597 _0492_
*598 _0493_
*599 _0494_
*600 _0495_
*601 _0496_
*602 _0497_
*603 _0498_
*604 _0499_
*605 _0500_
*606 _0501_
*607 _0502_
*608 _0503_
*609 _0504_
*610 _0505_
*611 _0506_
*612 _0507_
*613 _0508_
*614 _0509_
*615 _0510_
*616 _0511_
*617 _0512_
*618 _0513_
*619 _0514_
*620 _0515_
*621 _0516_
*622 _0517_
*623 _0518_
*624 _0519_
*625 _0520_
*626 _0521_
*627 _0522_
*628 _0523_
*629 _0524_
*630 _0525_
*631 _0526_
*632 _0527_
*633 _0528_
*634 _0529_
*635 _0530_
*636 _0531_
*637 _0532_
*638 _0533_
*639 _0534_
*640 _0535_
*641 _0536_
*642 _0537_
*643 _0538_
*644 _0539_
*645 _0540_
*646 _0541_
*647 _0542_
*648 _0543_
*649 _0544_
*650 _0545_
*651 _0546_
*652 _0547_
*653 _0548_
*654 _0549_
*655 _0550_
*656 _0551_
*657 _0552_
*658 _0553_
*659 _0554_
*660 _0555_
*661 _0556_
*662 _0557_
*663 _0558_
*664 _0559_
*665 _0560_
*666 _0561_
*667 _0562_
*668 _0563_
*669 _0564_
*670 _0565_
*671 _0566_
*672 _0567_
*673 _0568_
*674 _0569_
*675 _0570_
*676 _0571_
*677 _0572_
*678 _0573_
*679 _0574_
*680 _0575_
*681 _0576_
*682 _0577_
*683 _0578_
*684 _0579_
*685 _0580_
*686 _0581_
*687 _0582_
*688 _0583_
*689 _0584_
*690 _0585_
*691 _0586_
*692 _0587_
*693 _0588_
*694 _0589_
*695 _0590_
*696 _0591_
*697 _0592_
*698 _0593_
*699 _0594_
*700 _0595_
*701 _0596_
*702 _0597_
*703 _0598_
*704 _0599_
*705 _0600_
*706 _0601_
*707 _0602_
*708 _0603_
*709 _0604_
*710 _0605_
*711 _0606_
*712 _0607_
*713 _0608_
*714 _0609_
*715 _0610_
*716 _0611_
*717 _0612_
*718 _0613_
*719 _0614_
*720 _0615_
*721 _0616_
*722 _0617_
*723 _0618_
*724 _0619_
*725 _0620_
*726 _0621_
*727 _0622_
*728 _0623_
*729 _0624_
*730 _0625_
*731 _0626_
*732 _0627_
*733 _0628_
*734 _0629_
*735 _0630_
*736 _0631_
*737 _0632_
*738 _0633_
*739 _0634_
*740 _0635_
*741 _0636_
*742 _0637_
*743 _0638_
*744 _0639_
*745 _0640_
*746 _0641_
*747 _0642_
*748 _0643_
*749 _0644_
*750 _0645_
*751 _0646_
*752 _0647_
*753 _0648_
*754 _0649_
*755 _0650_
*756 _0651_
*757 _0652_
*758 _0653_
*759 _0654_
*760 _0655_
*761 _0656_
*762 _0657_
*763 _0658_
*764 _0659_
*765 _0660_
*766 _0661_
*767 _0662_
*768 _0663_
*769 _0664_
*770 _0665_
*771 _0666_
*772 _0667_
*773 _0668_
*774 _0669_
*775 _0670_
*776 _0671_
*777 _0672_
*778 _0673_
*779 _0674_
*780 _0675_
*781 _0676_
*782 _0677_
*783 _0678_
*784 _0679_
*785 _0680_
*786 _0681_
*787 _0682_
*788 _0683_
*789 _0684_
*790 _0685_
*791 _0686_
*792 _0687_
*793 _0688_
*794 _0689_
*795 _0690_
*796 _0691_
*797 _0692_
*798 _0693_
*799 _0694_
*800 _0695_
*801 _0696_
*802 _0697_
*803 _0698_
*804 _0699_
*805 _0700_
*806 _0701_
*807 _0702_
*808 _0703_
*809 _0704_
*810 _0705_
*811 _0706_
*812 _0707_
*813 _0708_
*814 _0709_
*815 _0710_
*816 _0711_
*817 _0712_
*818 _0713_
*819 _0714_
*820 _0715_
*821 _0716_
*822 _0717_
*823 _0718_
*824 _0719_
*825 _0720_
*826 _0721_
*827 _0722_
*828 _0723_
*829 _0724_
*830 _0725_
*831 _0726_
*832 _0727_
*833 _0728_
*834 _0729_
*835 _0730_
*836 _0731_
*837 _0732_
*838 _0733_
*839 _0734_
*840 _0735_
*841 _0736_
*842 _0737_
*843 _0738_
*844 _0739_
*845 _0740_
*846 _0741_
*847 _0742_
*848 _0743_
*849 _0744_
*850 _0745_
*851 _0746_
*852 _0747_
*853 _0748_
*854 _0749_
*855 _0750_
*856 _0751_
*857 _0752_
*858 _0753_
*859 _0754_
*860 _0755_
*861 _0756_
*862 _0757_
*863 _0758_
*864 _0759_
*865 _0760_
*866 _0761_
*867 _0762_
*868 _0763_
*869 _0764_
*870 _0765_
*871 _0766_
*872 _0767_
*873 _0768_
*874 _0769_
*875 _0770_
*876 _0771_
*877 _0772_
*878 _0773_
*879 _0774_
*880 _0775_
*881 _0776_
*882 _0777_
*883 _0778_
*884 _0779_
*885 _0780_
*886 _0781_
*887 _0782_
*888 _0783_
*889 _0784_
*890 _0785_
*891 _0786_
*892 _0787_
*893 _0788_
*894 _0789_
*895 _0790_
*896 _0791_
*897 _0792_
*898 _0793_
*899 _0794_
*900 _0795_
*901 _0796_
*902 _0797_
*903 _0798_
*904 _0799_
*905 _0800_
*906 _0801_
*907 _0802_
*908 _0803_
*909 _0804_
*910 _0805_
*911 _0806_
*912 _0807_
*913 _0808_
*914 _0809_
*915 _0810_
*916 _0811_
*917 _0812_
*918 _0813_
*919 _0814_
*920 _0815_
*921 _0816_
*922 _0817_
*923 _0818_
*924 _0819_
*925 _0820_
*926 _0821_
*927 _0822_
*928 _0823_
*929 _0824_
*930 _0825_
*931 _0826_
*932 _0827_
*933 _0828_
*934 _0829_
*935 _0830_
*936 _0831_
*937 _0832_
*938 _0833_
*939 _0834_
*940 _0835_
*941 _0836_
*942 _0837_
*943 _0838_
*944 _0839_
*945 _0840_
*946 _0841_
*947 _0842_
*948 _0843_
*949 _0844_
*950 _0845_
*951 _0846_
*952 _0847_
*953 _0848_
*954 _0849_
*955 _0850_
*956 _0851_
*957 _0852_
*958 _0853_
*959 _0854_
*960 _0855_
*961 _0856_
*962 _0857_
*963 _0858_
*964 _0859_
*965 _0860_
*966 _0861_
*967 _0862_
*968 _0863_
*969 _0864_
*970 _0865_
*971 _0866_
*972 _0867_
*973 _0868_
*974 _0869_
*975 _0870_
*976 _0871_
*977 _0872_
*978 _0873_
*979 _0874_
*980 _0875_
*981 _0876_
*982 _0877_
*983 _0878_
*984 _0879_
*985 _0880_
*986 _0881_
*987 _0882_
*988 _0883_
*989 _0884_
*990 _0885_
*991 _0886_
*992 _0887_
*993 _0888_
*994 _0889_
*995 _0890_
*996 _0891_
*997 _0892_
*998 _0893_
*999 _0894_
*1000 _0895_
*1001 _0896_
*1002 _0897_
*1003 _0898_
*1004 _0899_
*1005 _0900_
*1006 _0901_
*1007 _0902_
*1008 _0903_
*1009 _0904_
*1010 _0905_
*1011 _0906_
*1012 _0907_
*1013 _0908_
*1014 _0909_
*1015 _0910_
*1016 _0911_
*1017 _0912_
*1018 _0913_
*1019 _0914_
*1020 _0915_
*1021 _0916_
*1022 _0917_
*1023 _0918_
*1024 _0919_
*1025 _0920_
*1026 _0921_
*1027 _0922_
*1028 _0923_
*1029 _0924_
*1030 _0925_
*1031 _0926_
*1032 _0927_
*1033 _0928_
*1034 _0929_
*1035 _0930_
*1036 _0931_
*1037 _0932_
*1038 _0933_
*1039 _0934_
*1040 _0935_
*1041 _0936_
*1042 _0937_
*1043 _0938_
*1044 _0939_
*1045 _0940_
*1046 _0941_
*1047 _0942_
*1048 _0943_
*1049 _0944_
*1050 _0945_
*1051 _0946_
*1052 _0947_
*1053 _0948_
*1054 _0949_
*1055 _0950_
*1056 _0951_
*1057 _0952_
*1058 _0953_
*1059 _0954_
*1060 _0955_
*1061 _0956_
*1062 _0957_
*1063 _0958_
*1064 _0959_
*1065 _0960_
*1066 _0961_
*1067 _0962_
*1068 _0963_
*1069 _0964_
*1070 _0965_
*1071 _0966_
*1072 _0967_
*1073 _0968_
*1074 _0969_
*1075 _0970_
*1076 _0971_
*1077 _0972_
*1078 _0973_
*1079 _0974_
*1080 _0975_
*1081 _0976_
*1082 _0977_
*1083 _0978_
*1084 _0979_
*1085 _0980_
*1086 _0981_
*1087 _0982_
*1088 _0983_
*1089 _0984_
*1090 _0985_
*1091 _0986_
*1092 _0987_
*1093 _0988_
*1094 _0989_
*1095 _0990_
*1096 _0991_
*1097 _0992_
*1098 _0993_
*1099 _0994_
*1100 _0995_
*1101 _0996_
*1102 _0997_
*1103 _0998_
*1104 _0999_
*1105 _1000_
*1106 _1001_
*1107 _1002_
*1108 _1003_
*1109 _1004_
*1110 _1005_
*1111 _1006_
*1112 _1007_
*1113 _1008_
*1114 _1009_
*1115 _1010_
*1116 _1011_
*1117 _1012_
*1118 _1013_
*1119 _1014_
*1120 _1015_
*1121 _1016_
*1122 _1017_
*1123 _1018_
*1124 _1019_
*1125 _1020_
*1126 _1021_
*1127 _1022_
*1128 _1023_
*1129 _1024_
*1130 _1025_
*1131 _1026_
*1132 _1027_
*1133 _1028_
*1134 _1029_
*1135 _1030_
*1136 _1031_
*1137 _1032_
*1138 _1033_
*1139 _1034_
*1140 _1035_
*1141 _1036_
*1142 _1037_
*1143 _1038_
*1144 _1039_
*1145 _1040_
*1146 _1041_
*1147 _1042_
*1148 _1043_
*1149 _1044_
*1150 _1045_
*1151 _1046_
*1152 _1047_
*1153 _1048_
*1154 _1049_
*1155 _1050_
*1156 _1051_
*1157 _1052_
*1158 _1053_
*1159 _1054_
*1160 _1055_
*1161 _1056_
*1162 _1057_
*1163 _1058_
*1164 _1059_
*1165 _1060_
*1166 _1061_
*1167 _1062_
*1168 _1063_
*1169 _1064_
*1170 _1065_
*1171 _1066_
*1172 _1067_
*1173 _1068_
*1174 _1069_
*1175 _1070_
*1176 _1071_
*1177 _1072_
*1178 _1073_
*1179 _1074_
*1180 _1075_
*1181 _1076_
*1182 _1077_
*1183 _1078_
*1184 _1079_
*1185 _1080_
*1186 _1081_
*1187 _1082_
*1188 _1083_
*1189 _1084_
*1190 _1085_
*1191 _1086_
*1192 _1087_
*1193 _1088_
*1194 _1089_
*1195 _1090_
*1196 _1091_
*1197 _1092_
*1198 _1093_
*1199 _1094_
*1200 _1095_
*1201 _1096_
*1202 _1097_
*1203 _1098_
*1204 _1099_
*1205 _1100_
*1206 _1101_
*1207 _1102_
*1208 _1103_
*1209 _1104_
*1210 _1105_
*1211 _1106_
*1212 _1107_
*1213 _1108_
*1214 _1109_
*1215 _1110_
*1216 _1111_
*1217 _1112_
*1218 _1113_
*1219 _1114_
*1220 _1115_
*1221 _1116_
*1222 _1117_
*1223 _1118_
*1224 _1119_
*1225 _1120_
*1226 _1121_
*1227 _1122_
*1228 _1123_
*1229 _1124_
*1230 _1125_
*1231 _1126_
*1232 _1127_
*1233 _1128_
*1234 _1129_
*1235 _1130_
*1236 _1131_
*1237 _1132_
*1238 _1133_
*1239 _1134_
*1240 _1135_
*1241 _1136_
*1242 _1137_
*1243 _1138_
*1244 _1139_
*1245 _1140_
*1246 _1141_
*1247 _1142_
*1248 _1143_
*1249 _1144_
*1250 _1145_
*1251 _1146_
*1252 _1147_
*1253 _1148_
*1254 _1149_
*1255 _1150_
*1256 _1151_
*1257 _1152_
*1258 _1153_
*1259 _1154_
*1260 _1155_
*1261 _1156_
*1262 _1157_
*1263 _1158_
*1264 _1159_
*1265 _1160_
*1266 _1161_
*1267 _1162_
*1268 _1163_
*1269 _1164_
*1270 _1165_
*1271 _1166_
*1272 _1167_
*1273 _1168_
*1274 _1169_
*1275 _1170_
*1276 _1171_
*1277 _1172_
*1278 _1173_
*1279 _1174_
*1280 _1175_
*1281 _1176_
*1282 _1177_
*1283 _1178_
*1284 _1179_
*1285 _1180_
*1286 _1181_
*1287 _1182_
*1288 _1183_
*1289 _1184_
*1290 _1185_
*1291 _1186_
*1292 _1187_
*1293 _1188_
*1294 _1189_
*1295 _1190_
*1296 _1191_
*1297 _1192_
*1298 _1193_
*1299 _1194_
*1300 _1195_
*1301 _1196_
*1302 _1197_
*1303 _1198_
*1304 _1199_
*1305 _1200_
*1306 _1201_
*1307 _1202_
*1308 _1203_
*1309 _1204_
*1310 _1205_
*1311 _1206_
*1312 _1207_
*1313 _1208_
*1314 _1209_
*1315 _1210_
*1316 _1211_
*1317 _1212_
*1318 _1213_
*1319 _1214_
*1320 _1215_
*1321 _1216_
*1322 _1217_
*1323 _1218_
*1324 _1219_
*1325 _1220_
*1326 _1221_
*1327 _1222_
*1328 _1223_
*1329 _1224_
*1330 _1225_
*1331 _1226_
*1332 _1227_
*1333 _1228_
*1334 _1229_
*1335 _1230_
*1336 _1231_
*1337 _1232_
*1338 _1233_
*1339 _1234_
*1340 _1235_
*1341 _1236_
*1342 _1237_
*1343 _1238_
*1344 _1239_
*1345 _1240_
*1346 _1241_
*1347 _1242_
*1348 _1243_
*1349 _1244_
*1350 _1245_
*1351 _1246_
*1352 _1247_
*1353 _1248_
*1354 _1249_
*1355 _1250_
*1356 _1251_
*1357 _1252_
*1358 _1253_
*1359 _1254_
*1360 _1255_
*1361 _1256_
*1362 _1257_
*1363 _1258_
*1364 _1259_
*1365 _1260_
*1366 _1261_
*1367 _1262_
*1368 _1263_
*1369 _1264_
*1370 _1265_
*1371 _1266_
*1372 _1267_
*1373 _1268_
*1374 _1269_
*1375 _1270_
*1376 _1271_
*1377 _1272_
*1378 _1273_
*1379 _1274_
*1380 _1275_
*1381 _1276_
*1382 _1277_
*1383 _1278_
*1384 _1279_
*1385 _1280_
*1386 _1281_
*1387 _1282_
*1388 _1283_
*1389 _1284_
*1390 _1285_
*1391 _1286_
*1392 _1287_
*1393 _1288_
*1394 _1289_
*1395 _1290_
*1396 _1291_
*1397 _1292_
*1398 _1293_
*1399 _1294_
*1400 _1295_
*1401 _1296_
*1402 _1297_
*1403 _1298_
*1404 _1299_
*1405 _1300_
*1406 _1301_
*1407 _1302_
*1408 _1303_
*1409 _1304_
*1410 _1305_
*1411 _1306_
*1412 _1307_
*1413 _1308_
*1414 _1309_
*1415 _1310_
*1416 _1311_
*1417 _1312_
*1418 _1313_
*1419 _1314_
*1420 _1315_
*1421 _1316_
*1422 _1317_
*1423 _1318_
*1424 _1319_
*1425 _1320_
*1426 _1321_
*1427 _1322_
*1428 _1323_
*1429 _1324_
*1430 _1325_
*1431 _1326_
*1432 _1327_
*1433 _1328_
*1434 _1329_
*1435 _1330_
*1436 _1331_
*1437 _1332_
*1438 _1333_
*1439 _1334_
*1440 _1335_
*1441 _1336_
*1442 _1337_
*1443 _1338_
*1444 _1339_
*1445 _1340_
*1446 _1341_
*1447 _1342_
*1448 _1343_
*1449 _1344_
*1450 _1345_
*1451 _1346_
*1452 _1347_
*1453 _1348_
*1454 _1349_
*1455 _1350_
*1456 _1351_
*1457 _1352_
*1458 _1353_
*1459 _1354_
*1460 _1355_
*1461 _1356_
*1462 _1357_
*1463 _1358_
*1464 _1359_
*1465 _1360_
*1466 _1361_
*1467 _1362_
*1468 _1363_
*1469 _1364_
*1470 _1365_
*1471 _1366_
*1472 _1367_
*1473 _1368_
*1474 _1369_
*1475 _1370_
*1476 _1371_
*1477 _1372_
*1478 _1373_
*1479 _1374_
*1480 _1375_
*1481 _1376_
*1482 _1377_
*1483 _1378_
*1484 _1379_
*1485 _1380_
*1486 _1381_
*1487 _1382_
*1488 _1383_
*1489 _1384_
*1490 _1385_
*1491 _1386_
*1492 _1387_
*1493 _1388_
*1494 _1389_
*1495 _1390_
*1496 _1391_
*1497 _1392_
*1498 _1393_
*1499 _1394_
*1500 _1395_
*1501 _1396_
*1502 _1397_
*1503 _1398_
*1504 _1399_
*1505 _1400_
*1506 _1401_
*1507 _1402_
*1508 _1403_
*1509 _1404_
*1510 _1405_
*1511 _1406_
*1512 _1407_
*1513 _1408_
*1514 _1409_
*1515 _1410_
*1516 _1411_
*1517 _1412_
*1518 _1413_
*1519 _1414_
*1520 _1415_
*1521 _1416_
*1522 _1417_
*1523 _1418_
*1524 _1419_
*1525 _1420_
*1526 _1421_
*1527 _1422_
*1528 _1423_
*1529 _1424_
*1530 _1425_
*1531 _1426_
*1532 _1427_
*1533 _1428_
*1534 _1429_
*1535 _1430_
*1536 _1431_
*1537 _1432_
*1538 _1433_
*1539 _1434_
*1540 _1435_
*1541 _1436_
*1542 _1437_
*1543 _1438_
*1544 _1439_
*1545 _1440_
*1546 _1441_
*1547 _1442_
*1548 _1443_
*1549 _1444_
*1550 _1445_
*1551 _1446_
*1552 _1447_
*1553 _1448_
*1554 _1449_
*1555 _1450_
*1556 _1451_
*1557 _1452_
*1558 _1453_
*1559 _1454_
*1560 _1455_
*1561 _1456_
*1562 _1457_
*1563 _1458_
*1564 _1459_
*1565 _1460_
*1566 _1461_
*1567 _1462_
*1568 a\[0\]\[0\]
*1569 a\[0\]\[1\]
*1570 a\[0\]\[2\]
*1571 a\[0\]\[3\]
*1572 a\[0\]\[4\]
*1573 a\[0\]\[5\]
*1574 a\[0\]\[6\]
*1575 a\[0\]\[7\]
*1576 a\[1\]\[0\]
*1577 a\[1\]\[1\]
*1578 a\[1\]\[2\]
*1579 a\[1\]\[3\]
*1580 a\[1\]\[4\]
*1581 a\[1\]\[5\]
*1582 a\[1\]\[6\]
*1583 a\[1\]\[7\]
*1584 b\[0\]\[0\]
*1585 b\[0\]\[1\]
*1586 b\[0\]\[2\]
*1587 b\[0\]\[3\]
*1588 b\[0\]\[4\]
*1589 b\[0\]\[5\]
*1590 b\[0\]\[6\]
*1591 b\[0\]\[7\]
*1592 b\[1\]\[0\]
*1593 b\[1\]\[1\]
*1594 b\[1\]\[2\]
*1595 b\[1\]\[3\]
*1596 b\[1\]\[4\]
*1597 b\[1\]\[5\]
*1598 b\[1\]\[6\]
*1599 b\[1\]\[7\]
*1600 bflip
*1601 c\[0\]\[0\]
*1602 c\[0\]\[1\]
*1603 c\[0\]\[2\]
*1604 c\[0\]\[3\]
*1605 c\[0\]\[4\]
*1606 c\[0\]\[5\]
*1607 c\[0\]\[6\]
*1608 c\[0\]\[7\]
*1609 c\[1\]\[0\]
*1610 c\[1\]\[1\]
*1611 c\[1\]\[2\]
*1612 c\[1\]\[3\]
*1613 c\[1\]\[4\]
*1614 c\[1\]\[5\]
*1615 c\[1\]\[6\]
*1616 c\[1\]\[7\]
*1617 clknet_0_clk
*1618 clknet_1_0__leaf_clk
*1619 clknet_1_1__leaf_clk
*1620 delta_t\[0\]
*1621 delta_t\[1\]
*1622 delta_t\[2\]
*1623 delta_t\[3\]
*1624 delta_t\[4\]
*1625 delta_t\[5\]
*1626 delta_t\[6\]
*1627 delta_t\[7\]
*1628 delta_t\[8\]
*1629 delta_t\[9\]
*1630 net1
*1631 net10
*1632 net11
*1633 net111
*1634 net112
*1635 net113
*1636 net114
*1637 net115
*1638 net116
*1639 net117
*1640 net118
*1641 net119
*1642 net12
*1643 net120
*1644 net121
*1645 net122
*1646 net123
*1647 net124
*1648 net125
*1649 net126
*1650 net127
*1651 net128
*1652 net129
*1653 net13
*1654 net130
*1655 net131
*1656 net132
*1657 net133
*1658 net134
*1659 net135
*1660 net136
*1661 net137
*1662 net138
*1663 net139
*1664 net14
*1665 net15
*1666 net16
*1667 net17
*1668 net18
*1669 net19
*1670 net2
*1671 net20
*1672 net21
*1673 net22
*1674 net23
*1675 net24
*1676 net25
*1677 net26
*1678 net27
*1679 net28
*1680 net29
*1681 net3
*1682 net30
*1683 net31
*1684 net32
*1685 net33
*1686 net34
*1687 net35
*1688 net36
*1689 net37
*1690 net38
*1691 net39
*1692 net4
*1693 net40
*1694 net41
*1695 net42
*1696 net43
*1697 net44
*1698 net45
*1699 net46
*1700 net47
*1701 net48
*1702 net49
*1703 net5
*1704 net50
*1705 net51
*1706 net52
*1707 net53
*1708 net54
*1709 net55
*1710 net56
*1711 net57
*1712 net58
*1713 net59
*1714 net6
*1715 net60
*1716 net61
*1717 net62
*1718 net63
*1719 net64
*1720 net65
*1721 net66
*1722 net67
*1723 net68
*1724 net69
*1725 net7
*1726 net70
*1727 net71
*1728 net72
*1729 net73
*1730 net74
*1731 net75
*1732 net76
*1733 net77
*1734 net78
*1735 net79
*1736 net8
*1737 net80
*1738 net81
*1739 net82
*1740 net83
*1741 net84
*1742 net85
*1743 net86
*1744 net87
*1745 net88
*1746 net89
*1747 net9
*1748 net90
*1749 net91
*1750 net92
*1751 net93
*1752 net94
*1753 net95
*1754 net96
*1755 t_reg\[0\]
*1756 t_reg\[1\]
*1757 t_reg\[2\]
*1758 t_reg\[3\]
*1759 t_reg\[4\]
*1760 t_reg\[5\]
*1761 t_reg\[6\]
*1762 t_reg\[7\]
*1763 t_reg\[8\]
*1764 t_reg\[9\]
*1765 ANTENNA_1
*1766 ANTENNA_2
*1767 ANTENNA__1467__A1
*1768 ANTENNA__1467__A2
*1769 ANTENNA__1468__A1
*1770 ANTENNA__1468__A2
*1771 ANTENNA__1469__A1
*1772 ANTENNA__1469__A2
*1773 ANTENNA__1470__A2
*1774 ANTENNA__1472__A1
*1775 ANTENNA__1472__A2
*1776 ANTENNA__1473__A2
*1777 ANTENNA__1475__A1
*1778 ANTENNA__1475__A2
*1779 ANTENNA__1477__A1
*1780 ANTENNA__1478__I
*1781 ANTENNA__1479__A2
*1782 ANTENNA__1480__A2
*1783 ANTENNA__1481__A2
*1784 ANTENNA__1482__A2
*1785 ANTENNA__1484__A1
*1786 ANTENNA__1484__A2
*1787 ANTENNA__1485__A2
*1788 ANTENNA__1487__A2
*1789 ANTENNA__1489__A1
*1790 ANTENNA__1489__A2
*1791 ANTENNA__1490__I
*1792 ANTENNA__1493__I
*1793 ANTENNA__1494__I
*1794 ANTENNA__1495__I
*1795 ANTENNA__1496__A2
*1796 ANTENNA__1498__A2
*1797 ANTENNA__1500__I
*1798 ANTENNA__1501__I
*1799 ANTENNA__1502__I
*1800 ANTENNA__1506__I
*1801 ANTENNA__1508__I
*1802 ANTENNA__1510__I
*1803 ANTENNA__1511__A1
*1804 ANTENNA__1514__A2
*1805 ANTENNA__1520__A1
*1806 ANTENNA__1520__A2
*1807 ANTENNA__1524__A1
*1808 ANTENNA__1524__B2
*1809 ANTENNA__1525__A1
*1810 ANTENNA__1529__I
*1811 ANTENNA__1531__I
*1812 ANTENNA__1532__A2
*1813 ANTENNA__1537__A1
*1814 ANTENNA__1537__B2
*1815 ANTENNA__1538__A1
*1816 ANTENNA__1546__B2
*1817 ANTENNA__1546__C2
*1818 ANTENNA__1547__I
*1819 ANTENNA__1550__I
*1820 ANTENNA__1551__A1
*1821 ANTENNA__1558__B2
*1822 ANTENNA__1558__C2
*1823 ANTENNA__1560__I
*1824 ANTENNA__1561__I
*1825 ANTENNA__1562__A1
*1826 ANTENNA__1566__I
*1827 ANTENNA__1567__I
*1828 ANTENNA__1568__I
*1829 ANTENNA__1570__A1
*1830 ANTENNA__1570__A2
*1831 ANTENNA__1573__B2
*1832 ANTENNA__1574__A1
*1833 ANTENNA__1575__I
*1834 ANTENNA__1577__A1
*1835 ANTENNA__1577__A2
*1836 ANTENNA__1580__A1
*1837 ANTENNA__1580__A2
*1838 ANTENNA__1581__I
*1839 ANTENNA__1584__I
*1840 ANTENNA__1588__A1
*1841 ANTENNA__1588__A2
*1842 ANTENNA__1588__B
*1843 ANTENNA__1589__A1
*1844 ANTENNA__1589__A2
*1845 ANTENNA__1589__B2
*1846 ANTENNA__1595__I
*1847 ANTENNA__1602__I0
*1848 ANTENNA__1602__I1
*1849 ANTENNA__1602__I2
*1850 ANTENNA__1602__I3
*1851 ANTENNA__1602__S0
*1852 ANTENNA__1602__S1
*1853 ANTENNA__1603__I
*1854 ANTENNA__1609__I0
*1855 ANTENNA__1609__I1
*1856 ANTENNA__1609__I2
*1857 ANTENNA__1609__I3
*1858 ANTENNA__1609__S0
*1859 ANTENNA__1609__S1
*1860 ANTENNA__1610__I
*1861 ANTENNA__1613__A1
*1862 ANTENNA__1613__A2
*1863 ANTENNA__1615__A1
*1864 ANTENNA__1615__A2
*1865 ANTENNA__1616__I0
*1866 ANTENNA__1616__I1
*1867 ANTENNA__1616__I3
*1868 ANTENNA__1616__S0
*1869 ANTENNA__1616__S1
*1870 ANTENNA__1617__I
*1871 ANTENNA__1622__I
*1872 ANTENNA__1623__A1
*1873 ANTENNA__1623__A2
*1874 ANTENNA__1624__A1
*1875 ANTENNA__1628__A1
*1876 ANTENNA__1628__A2
*1877 ANTENNA__1632__A1
*1878 ANTENNA__1632__A2
*1879 ANTENNA__1633__A1
*1880 ANTENNA__1641__A1
*1881 ANTENNA__1642__B2
*1882 ANTENNA__1646__B2
*1883 ANTENNA__1650__B2
*1884 ANTENNA__1653__I
*1885 ANTENNA__1656__A2
*1886 ANTENNA__1658__A1
*1887 ANTENNA__1658__A3
*1888 ANTENNA__1658__A4
*1889 ANTENNA__1661__A2
*1890 ANTENNA__1661__A3
*1891 ANTENNA__1666__A3
*1892 ANTENNA__1666__A4
*1893 ANTENNA__1669__A2
*1894 ANTENNA__1669__A3
*1895 ANTENNA__1672__A2
*1896 ANTENNA__1672__A3
*1897 ANTENNA__1674__A1
*1898 ANTENNA__1676__A1
*1899 ANTENNA__1678__A1
*1900 ANTENNA__1678__A3
*1901 ANTENNA__1678__A4
*1902 ANTENNA__1680__I
*1903 ANTENNA__1686__A1
*1904 ANTENNA__1691__A1
*1905 ANTENNA__1691__A2
*1906 ANTENNA__1695__A1
*1907 ANTENNA__1698__A1
*1908 ANTENNA__1698__A2
*1909 ANTENNA__1705__I
*1910 ANTENNA__1706__A2
*1911 ANTENNA__1706__A3
*1912 ANTENNA__1708__A2
*1913 ANTENNA__1709__A3
*1914 ANTENNA__1713__A1
*1915 ANTENNA__1716__A2
*1916 ANTENNA__1718__I
*1917 ANTENNA__1720__A2
*1918 ANTENNA__1721__I
*1919 ANTENNA__1722__A1
*1920 ANTENNA__1722__A2
*1921 ANTENNA__1724__I
*1922 ANTENNA__1726__A1
*1923 ANTENNA__1726__A2
*1924 ANTENNA__1730__I
*1925 ANTENNA__1731__I
*1926 ANTENNA__1732__I
*1927 ANTENNA__1733__A2
*1928 ANTENNA__1733__B1
*1929 ANTENNA__1736__I
*1930 ANTENNA__1737__A3
*1931 ANTENNA__1737__A4
*1932 ANTENNA__1742__A2
*1933 ANTENNA__1743__A1
*1934 ANTENNA__1743__A2
*1935 ANTENNA__1744__B2
*1936 ANTENNA__1745__A2
*1937 ANTENNA__1747__A1
*1938 ANTENNA__1748__A1
*1939 ANTENNA__1748__A3
*1940 ANTENNA__1749__A2
*1941 ANTENNA__1749__A3
*1942 ANTENNA__1750__A2
*1943 ANTENNA__1758__A1
*1944 ANTENNA__1764__I
*1945 ANTENNA__1770__I
*1946 ANTENNA__1772__A1
*1947 ANTENNA__1772__A2
*1948 ANTENNA__1775__A1
*1949 ANTENNA__1781__I
*1950 ANTENNA__1788__A1
*1951 ANTENNA__1789__A1
*1952 ANTENNA__1790__A1
*1953 ANTENNA__1795__A1
*1954 ANTENNA__1801__A1
*1955 ANTENNA__1802__B2
*1956 ANTENNA__1803__A2
*1957 ANTENNA__1804__A1
*1958 ANTENNA__1805__A1
*1959 ANTENNA__1808__A1
*1960 ANTENNA__1819__A1
*1961 ANTENNA__1821__I
*1962 ANTENNA__1825__A2
*1963 ANTENNA__1829__A1
*1964 ANTENNA__1829__A2
*1965 ANTENNA__1830__A1
*1966 ANTENNA__1836__A1
*1967 ANTENNA__1839__A1
*1968 ANTENNA__1843__A1
*1969 ANTENNA__1855__A1
*1970 ANTENNA__1864__A1
*1971 ANTENNA__1866__A2
*1972 ANTENNA__1870__A1
*1973 ANTENNA__1876__A2
*1974 ANTENNA__1884__A1
*1975 ANTENNA__1884__A2
*1976 ANTENNA__1888__A1
*1977 ANTENNA__1888__A2
*1978 ANTENNA__1892__A1
*1979 ANTENNA__1892__A2
*1980 ANTENNA__1893__A1
*1981 ANTENNA__1894__I
*1982 ANTENNA__1895__A2
*1983 ANTENNA__1901__A1
*1984 ANTENNA__1906__A1
*1985 ANTENNA__1909__A1
*1986 ANTENNA__1915__I
*1987 ANTENNA__1923__A2
*1988 ANTENNA__1926__I
*1989 ANTENNA__1948__A2
*1990 ANTENNA__1962__I
*1991 ANTENNA__1963__A2
*1992 ANTENNA__1965__I
*1993 ANTENNA__1966__A1
*1994 ANTENNA__1966__A2
*1995 ANTENNA__1967__A2
*1996 ANTENNA__1969__I
*1997 ANTENNA__1973__A1
*1998 ANTENNA__1973__A2
*1999 ANTENNA__1974__A1
*2000 ANTENNA__1974__A2
*2001 ANTENNA__1975__A2
*2002 ANTENNA__1982__A2
*2003 ANTENNA__1985__A1
*2004 ANTENNA__1985__A2
*2005 ANTENNA__1988__A1
*2006 ANTENNA__1988__A2
*2007 ANTENNA__1993__A2
*2008 ANTENNA__1997__A2
*2009 ANTENNA__2004__A2
*2010 ANTENNA__2008__I
*2011 ANTENNA__2009__I
*2012 ANTENNA__2010__A2
*2013 ANTENNA__2013__A2
*2014 ANTENNA__2014__A2
*2015 ANTENNA__2019__A1
*2016 ANTENNA__2028__B2
*2017 ANTENNA__2030__A2
*2018 ANTENNA__2041__A1
*2019 ANTENNA__2041__A2
*2020 ANTENNA__2041__B
*2021 ANTENNA__2042__A2
*2022 ANTENNA__2048__A1
*2023 ANTENNA__2050__A1
*2024 ANTENNA__2063__A1
*2025 ANTENNA__2063__A2
*2026 ANTENNA__2065__A2
*2027 ANTENNA__2072__A1
*2028 ANTENNA__2072__A2
*2029 ANTENNA__2074__I
*2030 ANTENNA__2075__A1
*2031 ANTENNA__2075__A2
*2032 ANTENNA__2082__A2
*2033 ANTENNA__2094__I
*2034 ANTENNA__2095__A2
*2035 ANTENNA__2098__A2
*2036 ANTENNA__2099__I
*2037 ANTENNA__2100__A1
*2038 ANTENNA__2116__A2
*2039 ANTENNA__2117__A2
*2040 ANTENNA__2124__A1
*2041 ANTENNA__2125__A1
*2042 ANTENNA__2136__A2
*2043 ANTENNA__2141__A2
*2044 ANTENNA__2142__I
*2045 ANTENNA__2150__A1
*2046 ANTENNA__2150__A2
*2047 ANTENNA__2150__A3
*2048 ANTENNA__2151__A2
*2049 ANTENNA__2152__I
*2050 ANTENNA__2153__A1
*2051 ANTENNA__2153__A2
*2052 ANTENNA__2154__A1
*2053 ANTENNA__2155__A2
*2054 ANTENNA__2157__A1
*2055 ANTENNA__2157__A2
*2056 ANTENNA__2170__A1
*2057 ANTENNA__2172__A2
*2058 ANTENNA__2173__A1
*2059 ANTENNA__2174__A1
*2060 ANTENNA__2174__A2
*2061 ANTENNA__2189__A2
*2062 ANTENNA__2190__A2
*2063 ANTENNA__2193__A1
*2064 ANTENNA__2195__A2
*2065 ANTENNA__2196__A1
*2066 ANTENNA__2206__A2
*2067 ANTENNA__2207__A2
*2068 ANTENNA__2208__A2