*SPEF "ieee 1481-1999"
*DESIGN "risc16"
*DATE "11:11:11 Fri 11 11, 1111"
*VENDOR "OpenRCX"
*PROGRAM "Parallel Extraction"
*VERSION "1.0"
*DESIGN_FLOW "NAME_SCOPE LOCAL" "PIN_CAP NONE"
*DIVIDER /
*DELIMITER :
*BUS_DELIMITER []
*T_UNIT 1 NS
*C_UNIT 1 PF
*R_UNIT 1 OHM
*L_UNIT 1 HENRY

*NAME_MAP
*1 clk
*2 dmem_addr[0]
*3 dmem_addr[10]
*4 dmem_addr[11]
*5 dmem_addr[12]
*6 dmem_addr[13]
*7 dmem_addr[14]
*8 dmem_addr[15]
*9 dmem_addr[1]
*10 dmem_addr[2]
*11 dmem_addr[3]
*12 dmem_addr[4]
*13 dmem_addr[5]
*14 dmem_addr[6]
*15 dmem_addr[7]
*16 dmem_addr[8]
*17 dmem_addr[9]
*18 dmem_data_in[0]
*19 dmem_data_in[10]
*20 dmem_data_in[11]
*21 dmem_data_in[12]
*22 dmem_data_in[13]
*23 dmem_data_in[14]
*24 dmem_data_in[15]
*25 dmem_data_in[1]
*26 dmem_data_in[2]
*27 dmem_data_in[3]
*28 dmem_data_in[4]
*29 dmem_data_in[5]
*30 dmem_data_in[6]
*31 dmem_data_in[7]
*32 dmem_data_in[8]
*33 dmem_data_in[9]
*34 dmem_data_out[0]
*35 dmem_data_out[10]
*36 dmem_data_out[11]
*37 dmem_data_out[12]
*38 dmem_data_out[13]
*39 dmem_data_out[14]
*40 dmem_data_out[15]
*41 dmem_data_out[1]
*42 dmem_data_out[2]
*43 dmem_data_out[3]
*44 dmem_data_out[4]
*45 dmem_data_out[5]
*46 dmem_data_out[6]
*47 dmem_data_out[7]
*48 dmem_data_out[8]
*49 dmem_data_out[9]
*50 dmem_we
*51 instr[0]
*52 instr[10]
*53 instr[11]
*54 instr[12]
*55 instr[13]
*56 instr[14]
*57 instr[15]
*58 instr[1]
*59 instr[2]
*60 instr[3]
*61 instr[4]
*62 instr[5]
*63 instr[6]
*64 instr[7]
*65 instr[8]
*66 instr[9]
*67 pc[0]
*68 pc[10]
*69 pc[11]
*70 pc[12]
*71 pc[13]
*72 pc[14]
*73 pc[15]
*74 pc[1]
*75 pc[2]
*76 pc[3]
*77 pc[4]
*78 pc[5]
*79 pc[6]
*80 pc[7]
*81 pc[8]
*82 pc[9]
*83 rst_n
*86 _0000_
*87 _0001_
*88 _0002_
*89 _0003_
*90 _0004_
*91 _0005_
*92 _0006_
*93 _0007_
*94 _0008_
*95 _0009_
*96 _0010_
*97 _0011_
*98 _0012_
*99 _0013_
*100 _0014_
*101 _0015_
*102 _0016_
*103 _0017_
*104 _0018_
*105 _0019_
*106 _0020_
*107 _0021_
*108 _0022_
*109 _0023_
*110 _0024_
*111 _0025_
*112 _0026_
*113 _0027_
*114 _0028_
*115 _0029_
*116 _0030_
*117 _0031_
*118 _0032_
*119 _0033_
*120 _0034_
*121 _0035_
*122 _0036_
*123 _0037_
*124 _0038_
*125 _0039_
*126 _0040_
*127 _0041_
*128 _0042_
*129 _0043_
*130 _0044_
*131 _0045_
*132 _0046_
*133 _0047_
*134 _0048_
*135 _0049_
*136 _0050_
*137 _0051_
*138 _0052_
*139 _0053_
*140 _0054_
*141 _0055_
*142 _0056_
*143 _0057_
*144 _0058_
*145 _0059_
*146 _0060_
*147 _0061_
*148 _0062_
*149 _0063_
*150 _0064_
*151 _0065_
*152 _0066_
*153 _0067_
*154 _0068_
*155 _0069_
*156 _0070_
*157 _0071_
*158 _0072_
*159 _0073_
*160 _0074_
*161 _0075_
*162 _0076_
*163 _0077_
*164 _0078_
*165 _0079_
*166 _0080_
*167 _0081_
*168 _0082_
*169 _0083_
*170 _0084_
*171 _0085_
*172 _0086_
*173 _0087_
*174 _0088_
*175 _0089_
*176 _0090_
*177 _0091_
*178 _0092_
*179 _0093_
*180 _0094_
*181 _0095_
*182 _0096_
*183 _0097_
*184 _0098_
*185 _0099_
*186 _0100_
*187 _0101_
*188 _0102_
*189 _0103_
*190 _0104_
*191 _0105_
*192 _0106_
*193 _0107_
*194 _0108_
*195 _0109_
*196 _0110_
*197 _0111_
*198 _0112_
*199 _0113_
*200 _0114_
*201 _0115_
*202 _0116_
*203 _0117_
*204 _0118_
*205 _0119_
*206 _0120_
*207 _0121_
*208 _0122_
*209 _0123_
*210 _0124_
*211 _0125_
*212 _0126_
*213 _0127_
*214 _0128_
*215 _0129_
*216 _0130_
*217 _0131_
*218 _0132_
*219 _0133_
*220 _0134_
*221 _0135_
*222 _0136_
*223 _0137_
*224 _0138_
*225 _0139_
*226 _0140_
*227 _0141_
*228 _0142_
*229 _0143_
*230 _0144_
*231 _0145_
*232 _0146_
*233 _0147_
*234 _0148_
*235 _0149_
*236 _0150_
*237 _0151_
*238 _0152_
*239 _0153_
*240 _0154_
*241 _0155_
*242 _0156_
*243 _0157_
*244 _0158_
*245 _0159_
*246 _0160_
*247 _0161_
*248 _0162_
*249 _0163_
*250 _0164_
*251 _0165_
*252 _0166_
*253 _0167_
*254 _0168_
*255 _0169_
*256 _0170_
*257 _0171_
*258 _0172_
*259 _0173_
*260 _0174_
*261 _0175_
*262 _0176_
*263 _0177_
*264 _0178_
*265 _0179_
*266 _0180_
*267 _0181_
*268 _0182_
*269 _0183_
*270 _0184_
*271 _0185_
*272 _0186_
*273 _0187_
*274 _0188_
*275 _0189_
*276 _0190_
*277 _0191_
*278 _0192_
*279 _0193_
*280 _0194_
*281 _0195_
*282 _0196_
*283 _0197_
*284 _0198_
*285 _0199_
*286 _0200_
*287 _0201_
*288 _0202_
*289 _0203_
*290 _0204_
*291 _0205_
*292 _0206_
*293 _0207_
*294 _0208_
*295 _0209_
*296 _0210_
*297 _0211_
*298 _0212_
*299 _0213_
*300 _0214_
*301 _0215_
*302 _0216_
*303 _0217_
*304 _0218_
*305 _0219_
*306 _0220_
*307 _0221_
*308 _0222_
*309 _0223_
*310 _0224_
*311 _0225_
*312 _0226_
*313 _0227_
*314 _0228_
*315 _0229_
*316 _0230_
*317 _0231_
*318 _0232_
*319 _0233_
*320 _0234_
*321 _0235_
*322 _0236_
*323 _0237_
*324 _0238_
*325 _0239_
*326 _0240_
*327 _0241_
*328 _0242_
*329 _0243_
*330 _0244_
*331 _0245_
*332 _0246_
*333 _0247_
*334 _0248_
*335 _0249_
*336 _0250_
*337 _0251_
*338 _0252_
*339 _0253_
*340 _0254_
*341 _0255_
*342 _0256_
*343 _0257_
*344 _0258_
*345 _0259_
*346 _0260_
*347 _0261_
*348 _0262_
*349 _0263_
*350 _0264_
*351 _0265_
*352 _0266_
*353 _0267_
*354 _0268_
*355 _0269_
*356 _0270_
*357 _0271_
*358 _0272_
*359 _0273_
*360 _0274_
*361 _0275_
*362 _0276_
*363 _0277_
*364 _0278_
*365 _0279_
*366 _0280_
*367 _0281_
*368 _0282_
*369 _0283_
*370 _0284_
*371 _0285_
*372 _0286_
*373 _0287_
*374 _0288_
*375 _0289_
*376 _0290_
*377 _0291_
*378 _0292_
*379 _0293_
*380 _0294_
*381 _0295_
*382 _0296_
*383 _0297_
*384 _0298_
*385 _0299_
*386 _0300_
*387 _0301_
*388 _0302_
*389 _0303_
*390 _0304_
*391 _0305_
*392 _0306_
*393 _0307_
*394 _0308_
*395 _0309_
*396 _0310_
*397 _0311_
*398 _0312_
*399 _0313_
*400 _0314_
*401 _0315_
*402 _0316_
*403 _0317_
*404 _0318_
*405 _0319_
*406 _0320_
*407 _0321_
*408 _0322_
*409 _0323_
*410 _0324_
*411 _0325_
*412 _0326_
*413 _0327_
*414 _0328_
*415 _0329_
*416 _0330_
*417 _0331_
*418 _0332_
*419 _0333_
*420 _0334_
*421 _0335_
*422 _0336_
*423 _0337_
*424 _0338_
*425 _0339_
*426 _0340_
*427 _0341_
*428 _0342_
*429 _0343_
*430 _0344_
*431 _0345_
*432 _0346_
*433 _0347_
*434 _0348_
*435 _0349_
*436 _0350_
*437 _0351_
*438 _0352_
*439 _0353_
*440 _0354_
*441 _0355_
*442 _0356_
*443 _0357_
*444 _0358_
*445 _0359_
*446 _0360_
*447 _0361_
*448 _0362_
*449 _0363_
*450 _0364_
*451 _0365_
*452 _0366_
*453 _0367_
*454 _0368_
*455 _0369_
*456 _0370_
*457 _0371_
*458 _0372_
*459 _0373_
*460 _0374_
*461 _0375_
*462 _0376_
*463 _0377_
*464 _0378_
*465 _0379_
*466 _0380_
*467 _0381_
*468 _0382_
*469 _0383_
*470 _0384_
*471 _0385_
*472 _0386_
*473 _0387_
*474 _0388_
*475 _0389_
*476 _0390_
*477 _0391_
*478 _0392_
*479 _0393_
*480 _0394_
*481 _0395_
*482 _0396_
*483 _0397_
*484 _0398_
*485 _0399_
*486 _0400_
*487 _0401_
*488 _0402_
*489 _0403_
*490 _0404_
*491 _0405_
*492 _0406_
*493 _0407_
*494 _0408_
*495 _0409_
*496 _0410_
*497 _0411_
*498 _0412_
*499 _0413_
*500 _0414_
*501 _0415_
*502 _0416_
*503 _0417_
*504 _0418_
*505 _0419_
*506 _0420_
*507 _0421_
*508 _0422_
*509 _0423_
*510 _0424_
*511 _0425_
*512 _0426_
*513 _0427_
*514 _0428_
*515 _0429_
*516 _0430_
*517 _0431_
*518 _0432_
*519 _0433_
*520 _0434_
*521 _0435_
*522 _0436_
*523 _0437_
*524 _0438_
*525 _0439_
*526 _0440_
*527 _0441_
*528 _0442_
*529 _0443_
*530 _0444_
*531 _0445_
*532 _0446_
*533 _0447_
*534 _0448_
*535 _0449_
*536 _0450_
*537 _0451_
*538 _0452_
*539 _0453_
*540 _0454_
*541 _0455_
*542 _0456_
*543 _0457_
*544 _0458_
*545 _0459_
*546 _0460_
*547 _0461_
*548 _0462_
*549 _0463_
*550 _0464_
*551 _0465_
*552 _0466_
*553 _0467_
*554 _0468_
*555 _0469_
*556 _0470_
*557 _0471_
*558 _0472_
*559 _0473_
*560 _0474_
*561 _0475_
*562 _0476_
*563 _0477_
*564 _0478_
*565 _0479_
*566 _0480_
*567 _0481_
*568 _0482_
*569 _0483_
*570 _0484_
*571 _0485_
*572 _0486_
*573 _0487_
*574 _0488_
*575 _0489_
*576 _0490_
*577 _0491_
*578 _0492_
*579 _0493_
*580 _0494_
*581 _0495_
*582 _0496_
*583 _0497_
*584 _0498_
*585 _0499_
*586 _0500_
*587 _0501_
*588 _0502_
*589 _0503_
*590 _0504_
*591 _0505_
*592 _0506_
*593 _0507_
*594 _0508_
*595 _0509_
*596 _0510_
*597 _0511_
*598 _0512_
*599 _0513_
*600 _0514_
*601 _0515_
*602 _0516_
*603 _0517_
*604 _0518_
*605 _0519_
*606 _0520_
*607 _0521_
*608 _0522_
*609 _0523_
*610 _0524_
*611 _0525_
*612 _0526_
*613 _0527_
*614 _0528_
*615 _0529_
*616 _0530_
*617 _0531_
*618 _0532_
*619 _0533_
*620 _0534_
*621 _0535_
*622 _0536_
*623 _0537_
*624 _0538_
*625 _0539_
*626 _0540_
*627 _0541_
*628 _0542_
*629 _0543_
*630 _0544_
*631 _0545_
*632 _0546_
*633 _0547_
*634 _0548_
*635 _0549_
*636 _0550_
*637 _0551_
*638 _0552_
*639 _0553_
*640 _0554_
*641 _0555_
*642 _0556_
*643 _0557_
*644 _0558_
*645 _0559_
*646 _0560_
*647 _0561_
*648 _0562_
*649 _0563_
*650 _0564_
*651 _0565_
*652 _0566_
*653 _0567_
*654 _0568_
*655 _0569_
*656 _0570_
*657 _0571_
*658 _0572_
*659 _0573_
*660 _0574_
*661 _0575_
*662 _0576_
*663 _0577_
*664 _0578_
*665 _0579_
*666 _0580_
*667 _0581_
*668 _0582_
*669 _0583_
*670 _0584_
*671 _0585_
*672 _0586_
*673 _0587_
*674 _0588_
*675 _0589_
*676 _0590_
*677 _0591_
*678 _0592_
*679 _0593_
*680 _0594_
*681 _0595_
*682 _0596_
*683 _0597_
*684 _0598_
*685 _0599_
*686 _0600_
*687 _0601_
*688 _0602_
*689 _0603_
*690 _0604_
*691 _0605_
*692 _0606_
*693 _0607_
*694 _0608_
*695 _0609_
*696 _0610_
*697 _0611_
*698 _0612_
*699 _0613_
*700 _0614_
*701 _0615_
*702 _0616_
*703 _0617_
*704 _0618_
*705 _0619_
*706 _0620_
*707 _0621_
*708 _0622_
*709 _0623_
*710 _0624_
*711 _0625_
*712 _0626_
*713 _0627_
*714 _0628_
*715 _0629_
*716 _0630_
*717 _0631_
*718 _0632_
*719 _0633_
*720 _0634_
*721 _0635_
*722 _0636_
*723 _0637_
*724 _0638_
*725 _0639_
*726 _0640_
*727 _0641_
*728 _0642_
*729 _0643_
*730 _0644_
*731 _0645_
*732 _0646_
*733 _0647_
*734 _0648_
*735 _0649_
*736 _0650_
*737 _0651_
*738 _0652_
*739 _0653_
*740 _0654_
*741 _0655_
*742 _0656_
*743 _0657_
*744 _0658_
*745 _0659_
*746 _0660_
*747 _0661_
*748 _0662_
*749 _0663_
*750 _0664_
*751 _0665_
*752 _0666_
*753 _0667_
*754 _0668_
*755 _0669_
*756 _0670_
*757 _0671_
*758 _0672_
*759 _0673_
*760 _0674_
*761 _0675_
*762 _0676_
*763 _0677_
*764 _0678_
*765 _0679_
*766 _0680_
*767 _0681_
*768 _0682_
*769 _0683_
*770 _0684_
*771 _0685_
*772 _0686_
*773 _0687_
*774 _0688_
*775 _0689_
*776 _0690_
*777 _0691_
*778 _0692_
*779 _0693_
*780 _0694_
*781 _0695_
*782 _0696_
*783 _0697_
*784 _0698_
*785 _0699_
*786 _0700_
*787 _0701_
*788 _0702_
*789 _0703_
*790 _0704_
*791 _0705_
*792 _0706_
*793 _0707_
*794 _0708_
*795 _0709_
*796 _0710_
*797 _0711_
*798 _0712_
*799 _0713_
*800 _0714_
*801 _0715_
*802 _0716_
*803 _0717_
*804 _0718_
*805 _0719_
*806 _0720_
*807 _0721_
*808 _0722_
*809 _0723_
*810 _0724_
*811 _0725_
*812 _0726_
*813 _0727_
*814 _0728_
*815 _0729_
*816 _0730_
*817 _0731_
*818 _0732_
*819 _0733_
*820 _0734_
*821 _0735_
*822 _0736_
*823 _0737_
*824 _0738_
*825 _0739_
*826 _0740_
*827 _0741_
*828 _0742_
*829 _0743_
*830 _0744_
*831 _0745_
*832 _0746_
*833 _0747_
*834 _0748_
*835 _0749_
*836 _0750_
*837 _0751_
*838 _0752_
*839 _0753_
*840 _0754_
*841 _0755_
*842 _0756_
*843 _0757_
*844 _0758_
*845 _0759_
*846 _0760_
*847 _0761_
*848 _0762_
*849 _0763_
*850 _0764_
*851 _0765_
*852 _0766_
*853 _0767_
*854 _0768_
*855 _0769_
*856 _0770_
*857 _0771_
*858 _0772_
*859 _0773_
*860 _0774_
*861 _0775_
*862 _0776_
*863 _0777_
*864 _0778_
*865 _0779_
*866 _0780_
*867 _0781_
*868 _0782_
*869 _0783_
*870 _0784_
*871 _0785_
*872 _0786_
*873 _0787_
*874 _0788_
*875 _0789_
*876 _0790_
*877 _0791_
*878 _0792_
*879 _0793_
*880 _0794_
*881 _0795_
*882 _0796_
*883 _0797_
*884 _0798_
*885 _0799_
*886 _0800_
*887 _0801_
*888 _0802_
*889 _0803_
*890 _0804_
*891 _0805_
*892 _0806_
*893 _0807_
*894 _0808_
*895 _0809_
*896 _0810_
*897 _0811_
*898 _0812_
*899 _0813_
*900 _0814_
*901 _0815_
*902 _0816_
*903 _0817_
*904 _0818_
*905 _0819_
*906 _0820_
*907 _0821_
*908 _0822_
*909 _0823_
*910 _0824_
*911 _0825_
*912 _0826_
*913 _0827_
*914 _0828_
*915 _0829_
*916 _0830_
*917 _0831_
*918 _0832_
*919 _0833_
*920 _0834_
*921 _0835_
*922 _0836_
*923 _0837_
*924 _0838_
*925 _0839_
*926 _0840_
*927 _0841_
*928 _0842_
*929 _0843_
*930 _0844_
*931 _0845_
*932 _0846_
*933 _0847_
*934 _0848_
*935 _0849_
*936 _0850_
*937 _0851_
*938 _0852_
*939 _0853_
*940 _0854_
*941 _0855_
*942 _0856_
*943 _0857_
*944 _0858_
*945 _0859_
*946 _0860_
*947 _0861_
*948 _0862_
*949 _0863_
*950 _0864_
*951 _0865_
*952 _0866_
*953 _0867_
*954 _0868_
*955 _0869_
*956 _0870_
*957 _0871_
*958 _0872_
*959 _0873_
*960 _0874_
*961 _0875_
*962 _0876_
*963 _0877_
*964 _0878_
*965 _0879_
*966 _0880_
*967 _0881_
*968 _0882_
*969 _0883_
*970 _0884_
*971 _0885_
*972 _0886_
*973 _0887_
*974 _0888_
*975 _0889_
*976 _0890_
*977 _0891_
*978 _0892_
*979 _0893_
*980 _0894_
*981 _0895_
*982 _0896_
*983 _0897_
*984 _0898_
*985 _0899_
*986 _0900_
*987 _0901_
*988 _0902_
*989 _0903_
*990 _0904_
*991 _0905_
*992 _0906_
*993 _0907_
*994 _0908_
*995 _0909_
*996 _0910_
*997 _0911_
*998 _0912_
*999 _0913_
*1000 _0914_
*1001 _0915_
*1002 _0916_
*1003 _0917_
*1004 _0918_
*1005 _0919_
*1006 _0920_
*1007 _0921_
*1008 _0922_
*1009 _0923_
*1010 _0924_
*1011 _0925_
*1012 _0926_
*1013 _0927_
*1014 _0928_
*1015 _0929_
*1016 _0930_
*1017 _0931_
*1018 _0932_
*1019 _0933_
*1020 _0934_
*1021 _0935_
*1022 _0936_
*1023 _0937_
*1024 _0938_
*1025 _0939_
*1026 _0940_
*1027 _0941_
*1028 _0942_
*1029 _0943_
*1030 _0944_
*1031 _0945_
*1032 _0946_
*1033 _0947_
*1034 _0948_
*1035 _0949_
*1036 _0950_
*1037 _0951_
*1038 _0952_
*1039 _0953_
*1040 _0954_
*1041 _0955_
*1042 _0956_
*1043 _0957_
*1044 _0958_
*1045 _0959_
*1046 _0960_
*1047 _0961_
*1048 _0962_
*1049 _0963_
*1050 _0964_
*1051 _0965_
*1052 _0966_
*1053 _0967_
*1054 _0968_
*1055 _0969_
*1056 _0970_
*1057 _0971_
*1058 _0972_
*1059 _0973_
*1060 _0974_
*1061 _0975_
*1062 _0976_
*1063 _0977_
*1064 _0978_
*1065 _0979_
*1066 _0980_
*1067 _0981_
*1068 _0982_
*1069 _0983_
*1070 _0984_
*1071 _0985_
*1072 _0986_
*1073 _0987_
*1074 _0988_
*1075 _0989_
*1076 _0990_
*1077 _0991_
*1078 _0992_
*1079 _0993_
*1080 _0994_
*1081 _0995_
*1082 _0996_
*1083 _0997_
*1084 _0998_
*1085 _0999_
*1086 _1000_
*1087 _1001_
*1088 _1002_
*1089 _1003_
*1090 _1004_
*1091 _1005_
*1092 _1006_
*1093 _1007_
*1094 _1008_
*1095 _1009_
*1096 _1010_
*1097 _1011_
*1098 _1012_
*1099 _1013_
*1100 _1014_
*1101 _1015_
*1102 _1016_
*1103 _1017_
*1104 _1018_
*1105 _1019_
*1106 _1020_
*1107 _1021_
*1108 _1022_
*1109 _1023_
*1110 _1024_
*1111 _1025_
*1112 _1026_
*1113 _1027_
*1114 _1028_
*1115 _1029_
*1116 _1030_
*1117 _1031_
*1118 _1032_
*1119 _1033_
*1120 _1034_
*1121 _1035_
*1122 _1036_
*1123 _1037_
*1124 _1038_
*1125 _1039_
*1126 _1040_
*1127 _1041_
*1128 _1042_
*1129 _1043_
*1130 _1044_
*1131 net1
*1132 net10
*1133 net100
*1134 net101
*1135 net102
*1136 net103
*1137 net104
*1138 net105
*1139 net106
*1140 net107
*1141 net108
*1142 net109
*1143 net11
*1144 net110
*1145 net111
*1146 net112
*1147 net113
*1148 net114
*1149 net115
*1150 net116
*1151 net117
*1152 net118
*1153 net119
*1154 net12
*1155 net120
*1156 net121
*1157 net122
*1158 net123
*1159 net124
*1160 net125
*1161 net126
*1162 net127
*1163 net128
*1164 net129
*1165 net13
*1166 net130
*1167 net131
*1168 net132
*1169 net133
*1170 net134
*1171 net135
*1172 net136
*1173 net137
*1174 net138
*1175 net139
*1176 net14
*1177 net140
*1178 net141
*1179 net15
*1180 net16
*1181 net17
*1182 net18
*1183 net19
*1184 net2
*1185 net20
*1186 net21
*1187 net22
*1188 net23
*1189 net24
*1190 net25
*1191 net26
*1192 net27
*1193 net28
*1194 net29
*1195 net3
*1196 net30
*1197 net31
*1198 net32
*1199 net33
*1200 net34
*1201 net35
*1202 net36
*1203 net37
*1204 net38
*1205 net39
*1206 net4
*1207 net40
*1208 net41
*1209 net42
*1210 net43
*1211 net44
*1212 net45
*1213 net46
*1214 net47
*1215 net48
*1216 net49
*1217 net5
*1218 net50
*1219 net51
*1220 net52
*1221 net53
*1222 net54
*1223 net55
*1224 net56
*1225 net57
*1226 net58
*1227 net59
*1228 net6
*1229 net60
*1230 net61
*1231 net62
*1232 net63
*1233 net64
*1234 net65
*1235 net66
*1236 net67
*1237 net68
*1238 net69
*1239 net7
*1240 net70
*1241 net71
*1242 net72
*1243 net73
*1244 net74
*1245 net75
*1246 net76
*1247 net77
*1248 net78
*1249 net79
*1250 net8
*1251 net80
*1252 net81
*1253 net82
*1254 net83
*1255 net84
*1256 net85
*1257 net86
*1258 net87
*1259 net88
*1260 net89
*1261 net9
*1262 net90
*1263 net91
*1264 net92
*1265 net93
*1266 net94
*1267 net95
*1268 net96
*1269 net97
*1270 net98
*1271 net99
*1272 register_file\.reg_file_read\[1\]\[0\]
*1273 register_file\.reg_file_read\[1\]\[10\]
*1274 register_file\.reg_file_read\[1\]\[11\]
*1275 register_file\.reg_file_read\[1\]\[12\]
*1276 register_file\.reg_file_read\[1\]\[13\]
*1277 register_file\.reg_file_read\[1\]\[14\]
*1278 register_file\.reg_file_read\[1\]\[15\]
*1279 register_file\.reg_file_read\[1\]\[1\]
*1280 register_file\.reg_file_read\[1\]\[2\]
*1281 register_file\.reg_file_read\[1\]\[3\]
*1282 register_file\.reg_file_read\[1\]\[4\]
*1283 register_file\.reg_file_read\[1\]\[5\]
*1284 register_file\.reg_file_read\[1\]\[6\]
*1285 register_file\.reg_file_read\[1\]\[7\]
*1286 register_file\.reg_file_read\[1\]\[8\]
*1287 register_file\.reg_file_read\[1\]\[9\]
*1288 register_file\.reg_file_read\[2\]\[0\]
*1289 register_file\.reg_file_read\[2\]\[10\]
*1290 register_file\.reg_file_read\[2\]\[11\]
*1291 register_file\.reg_file_read\[2\]\[12\]
*1292 register_file\.reg_file_read\[2\]\[13\]
*1293 register_file\.reg_file_read\[2\]\[14\]
*1294 register_file\.reg_file_read\[2\]\[15\]
*1295 register_file\.reg_file_read\[2\]\[1\]
*1296 register_file\.reg_file_read\[2\]\[2\]
*1297 register_file\.reg_file_read\[2\]\[3\]
*1298 register_file\.reg_file_read\[2\]\[4\]
*1299 register_file\.reg_file_read\[2\]\[5\]
*1300 register_file\.reg_file_read\[2\]\[6\]
*1301 register_file\.reg_file_read\[2\]\[7\]
*1302 register_file\.reg_file_read\[2\]\[8\]
*1303 register_file\.reg_file_read\[2\]\[9\]
*1304 register_file\.reg_file_read\[3\]\[0\]
*1305 register_file\.reg_file_read\[3\]\[10\]
*1306 register_file\.reg_file_read\[3\]\[11\]
*1307 register_file\.reg_file_read\[3\]\[12\]
*1308 register_file\.reg_file_read\[3\]\[13\]
*1309 register_file\.reg_file_read\[3\]\[14\]
*1310 register_file\.reg_file_read\[3\]\[15\]
*1311 register_file\.reg_file_read\[3\]\[1\]
*1312 register_file\.reg_file_read\[3\]\[2\]
*1313 register_file\.reg_file_read\[3\]\[3\]
*1314 register_file\.reg_file_read\[3\]\[4\]
*1315 register_file\.reg_file_read\[3\]\[5\]
*1316 register_file\.reg_file_read\[3\]\[6\]
*1317 register_file\.reg_file_read\[3\]\[7\]
*1318 register_file\.reg_file_read\[3\]\[8\]
*1319 register_file\.reg_file_read\[3\]\[9\]
*1320 register_file\.reg_file_read\[4\]\[0\]
*1321 register_file\.reg_file_read\[4\]\[10\]
*1322 register_file\.reg_file_read\[4\]\[11\]
*1323 register_file\.reg_file_read\[4\]\[12\]
*1324 register_file\.reg_file_read\[4\]\[13\]
*1325 register_file\.reg_file_read\[4\]\[14\]
*1326 register_file\.reg_file_read\[4\]\[15\]
*1327 register_file\.reg_file_read\[4\]\[1\]
*1328 register_file\.reg_file_read\[4\]\[2\]
*1329 register_file\.reg_file_read\[4\]\[3\]
*1330 register_file\.reg_file_read\[4\]\[4\]
*1331 register_file\.reg_file_read\[4\]\[5\]
*1332 register_file\.reg_file_read\[4\]\[6\]
*1333 register_file\.reg_file_read\[4\]\[7\]
*1334 register_file\.reg_file_read\[4\]\[8\]
*1335 register_file\.reg_file_read\[4\]\[9\]
*1336 register_file\.reg_file_read\[5\]\[0\]
*1337 register_file\.reg_file_read\[5\]\[10\]
*1338 register_file\.reg_file_read\[5\]\[11\]
*1339 register_file\.reg_file_read\[5\]\[12\]
*1340 register_file\.reg_file_read\[5\]\[13\]
*1341 register_file\.reg_file_read\[5\]\[14\]
*1342 register_file\.reg_file_read\[5\]\[15\]
*1343 register_file\.reg_file_read\[5\]\[1\]
*1344 register_file\.reg_file_read\[5\]\[2\]
*1345 register_file\.reg_file_read\[5\]\[3\]
*1346 register_file\.reg_file_read\[5\]\[4\]
*1347 register_file\.reg_file_read\[5\]\[5\]
*1348 register_file\.reg_file_read\[5\]\[6\]
*1349 register_file\.reg_file_read\[5\]\[7\]
*1350 register_file\.reg_file_read\[5\]\[8\]
*1351 register_file\.reg_file_read\[5\]\[9\]
*1352 register_file\.reg_file_read\[6\]\[0\]
*1353 register_file\.reg_file_read\[6\]\[10\]
*1354 register_file\.reg_file_read\[6\]\[11\]
*1355 register_file\.reg_file_read\[6\]\[12\]
*1356 register_file\.reg_file_read\[6\]\[13\]
*1357 register_file\.reg_file_read\[6\]\[14\]
*1358 register_file\.reg_file_read\[6\]\[15\]
*1359 register_file\.reg_file_read\[6\]\[1\]
*1360 register_file\.reg_file_read\[6\]\[2\]
*1361 register_file\.reg_file_read\[6\]\[3\]
*1362 register_file\.reg_file_read\[6\]\[4\]
*1363 register_file\.reg_file_read\[6\]\[5\]
*1364 register_file\.reg_file_read\[6\]\[6\]
*1365 register_file\.reg_file_read\[6\]\[7\]
*1366 register_file\.reg_file_read\[6\]\[8\]
*1367 register_file\.reg_file_read\[6\]\[9\]
*1368 register_file\.reg_file_read\[7\]\[0\]
*1369 register_file\.reg_file_read\[7\]\[10\]
*1370 register_file\.reg_file_read\[7\]\[11\]
*1371 register_file\.reg_file_read\[7\]\[12\]
*1372 register_file\.reg_file_read\[7\]\[13\]
*1373 register_file\.reg_file_read\[7\]\[14\]
*1374 register_file\.reg_file_read\[7\]\[15\]
*1375 register_file\.reg_file_read\[7\]\[1\]
*1376 register_file\.reg_file_read\[7\]\[2\]
*1377 register_file\.reg_file_read\[7\]\[3\]
*1378 register_file\.reg_file_read\[7\]\[4\]
*1379 register_file\.reg_file_read\[7\]\[5\]
*1380 register_file\.reg_file_read\[7\]\[6\]
*1381 register_file\.reg_file_read\[7\]\[7\]
*1382 register_file\.reg_file_read\[7\]\[8\]
*1383 register_file\.reg_file_read\[7\]\[9\]
*1384 ANTENNA__1045__I
*1385 ANTENNA__1046__A1
*1386 ANTENNA__1046__A3
*1387 ANTENNA__1052__I
*1388 ANTENNA__1053__A1
*1389 ANTENNA__1053__A2
*1390 ANTENNA__1055__I
*1391 ANTENNA__1058__I
*1392 ANTENNA__1059__A3
*1393 ANTENNA__1064__I
*1394 ANTENNA__1065__B
*1395 ANTENNA__1067__I
*1396 ANTENNA__1068__A1
*1397 ANTENNA__1070__A1
*1398 ANTENNA__1075__I
*1399 ANTENNA__1084__A1
*1400 ANTENNA__1084__B
*1401 ANTENNA__1087__A2
*1402 ANTENNA__1088__I
*1403 ANTENNA__1090__I
*1404 ANTENNA__1092__A1
*1405 ANTENNA__1096__I
*1406 ANTENNA__1098__I
*1407 ANTENNA__1100__A3
*1408 ANTENNA__1101__A2
*1409 ANTENNA__1104__I
*1410 ANTENNA__1108__I
*1411 ANTENNA__1109__I
*1412 ANTENNA__1110__I
*1413 ANTENNA__1112__I
*1414 ANTENNA__1114__I
*1415 ANTENNA__1115__I
*1416 ANTENNA__1117__I
*1417 ANTENNA__1118__I
*1418 ANTENNA__1120__I
*1419 ANTENNA__1121__B1
*1420 ANTENNA__1123__I
*1421 ANTENNA__1125__I
*1422 ANTENNA__1127__I
*1423 ANTENNA__1131__I
*1424 ANTENNA__1133__I
*1425 ANTENNA__1136__I
*1426 ANTENNA__1141__A1
*1427 ANTENNA__1144__I
*1428 ANTENNA__1145__A1
*1429 ANTENNA__1148__A1
*1430 ANTENNA__1151__I
*1431 ANTENNA__1152__A2
*1432 ANTENNA__1155__B
*1433 ANTENNA__1156__I
*1434 ANTENNA__1161__A1
*1435 ANTENNA__1161__A2
*1436 ANTENNA__1164__A2
*1437 ANTENNA__1166__A1
*1438 ANTENNA__1167__A1
*1439 ANTENNA__1171__A3
*1440 ANTENNA__1172__A2
*1441 ANTENNA__1173__A3
*1442 ANTENNA__1174__I
*1443 ANTENNA__1182__A2
*1444 ANTENNA__1182__B1
*1445 ANTENNA__1185__I
*1446 ANTENNA__1186__I
*1447 ANTENNA__1187__I
*1448 ANTENNA__1188__A2
*1449 ANTENNA__1188__B1
*1450 ANTENNA__1189__I
*1451 ANTENNA__1190__I
*1452 ANTENNA__1191__I
*1453 ANTENNA__1192__A2
*1454 ANTENNA__1192__B1
*1455 ANTENNA__1192__C1
*1456 ANTENNA__1193__I
*1457 ANTENNA__1194__I
*1458 ANTENNA__1195__A2
*1459 ANTENNA__1195__B1
*1460 ANTENNA__1197__A1
*1461 ANTENNA__1197__A2
*1462 ANTENNA__1199__B
*1463 ANTENNA__1201__A1
*1464 ANTENNA__1201__A2
*1465 ANTENNA__1209__A2
*1466 ANTENNA__1210__B1
*1467 ANTENNA__1211__I
*1468 ANTENNA__1221__A2
*1469 ANTENNA__1221__A3
*1470 ANTENNA__1222__A2
*1471 ANTENNA__1227__I
*1472 ANTENNA__1230__I
*1473 ANTENNA__1231__B1
*1474 ANTENNA__1239__A1
*1475 ANTENNA__1245__A1
*1476 ANTENNA__1247__A2
*1477 ANTENNA__1250__A1
*1478 ANTENNA__1255__A1
*1479 ANTENNA__1255__A2
*1480 ANTENNA__1259__A2
*1481 ANTENNA__1259__A3
*1482 ANTENNA__1260__A2
*1483 ANTENNA__1261__A1
*1484 ANTENNA__1261__A2
*1485 ANTENNA__1265__I
*1486 ANTENNA__1267__A1
*1487 ANTENNA__1267__B1
*1488 ANTENNA__1269__A1
*1489 ANTENNA__1274__A1
*1490 ANTENNA__1280__A1
*1491 ANTENNA__1280__B2
*1492 ANTENNA__1281__A1
*1493 ANTENNA__1283__A1
*1494 ANTENNA__1285__I
*1495 ANTENNA__1286__I
*1496 ANTENNA__1287__A1
*1497 ANTENNA__1287__A2
*1498 ANTENNA__1287__A3
*1499 ANTENNA__1288__A2
*1500 ANTENNA__1289__A1
*1501 ANTENNA__1293__I
*1502 ANTENNA__1295__A2
*1503 ANTENNA__1296__A1
*1504 ANTENNA__1296__A2
*1505 ANTENNA__1296__B1
*1506 ANTENNA__1297__A1
*1507 ANTENNA__1297__A2
*1508 ANTENNA__1297__B1
*1509 ANTENNA__1297__B2
*1510 ANTENNA__1297__C1
*1511 ANTENNA__1297__C2
*1512 ANTENNA__1298__A1
*1513 ANTENNA__1298__A2
*1514 ANTENNA__1298__B1
*1515 ANTENNA__1301__B
*1516 ANTENNA__1302__A1
*1517 ANTENNA__1302__A2
*1518 ANTENNA__1303__A1
*1519 ANTENNA__1312__A1
*1520 ANTENNA__1317__A1
*1521 ANTENNA__1317__A2
*1522 ANTENNA__1318__A3
*1523 ANTENNA__1321__A2
*1524 ANTENNA__1321__A3
*1525 ANTENNA__1322__A2
*1526 ANTENNA__1322__B1
*1527 ANTENNA__1323__A1
*1528 ANTENNA__1323__A2
*1529 ANTENNA__1324__A2
*1530 ANTENNA__1324__A3
*1531 ANTENNA__1327__I
*1532 ANTENNA__1328__A1
*1533 ANTENNA__1328__B1
*1534 ANTENNA__1330__A1
*1535 ANTENNA__1341__A1
*1536 ANTENNA__1341__B2
*1537 ANTENNA__1342__A1
*1538 ANTENNA__1344__A2
*1539 ANTENNA__1345__A2
*1540 ANTENNA__1345__A3
*1541 ANTENNA__1348__A3
*1542 ANTENNA__1349__A2
*1543 ANTENNA__1349__B1
*1544 ANTENNA__1351__A2
*1545 ANTENNA__1351__A3
*1546 ANTENNA__1354__I
*1547 ANTENNA__1356__A2
*1548 ANTENNA__1356__B1
*1549 ANTENNA__1357__A2
*1550 ANTENNA__1357__B1
*1551 ANTENNA__1358__A2
*1552 ANTENNA__1359__A2
*1553 ANTENNA__1359__B1
*1554 ANTENNA__1361__A1
*1555 ANTENNA__1361__A2
*1556 ANTENNA__1362__A1
*1557 ANTENNA__1375__I
*1558 ANTENNA__1377__B2
*1559 ANTENNA__1383__I
*1560 ANTENNA__1385__I
*1561 ANTENNA__1386__A2
*1562 ANTENNA__1386__B1
*1563 ANTENNA__1386__B2
*1564 ANTENNA__1386__C1
*1565 ANTENNA__1388__A1
*1566 ANTENNA__1389__I
*1567 ANTENNA__1394__A2
*1568 ANTENNA__1394__B1
*1569 ANTENNA__1394__B2
*1570 ANTENNA__1395__A1
*1571 ANTENNA__1395__A2
*1572 ANTENNA__1395__B1
*1573 ANTENNA__1397__A1
*1574 ANTENNA__1399__B
*1575 ANTENNA__1400__A2
*1576 ANTENNA__1400__B1
*1577 ANTENNA__1400__C1
*1578 ANTENNA__1400__C2
*1579 ANTENNA__1401__A1
*1580 ANTENNA__1401__A2
*1581 ANTENNA__1401__B1
*1582 ANTENNA__1402__A2
*1583 ANTENNA__1402__B1
*1584 ANTENNA__1404__I0
*1585 ANTENNA__1404__I1
*1586 ANTENNA__1404__S
*1587 ANTENNA__1416__I
*1588 ANTENNA__1421__A2
*1589 ANTENNA__1421__B1
*1590 ANTENNA__1422__A2
*1591 ANTENNA__1422__B1
*1592 ANTENNA__1422__C1
*1593 ANTENNA__1423__A2
*1594 ANTENNA__1423__B1
*1595 ANTENNA__1425__I
*1596 ANTENNA__1426__I
*1597 ANTENNA__1427__I
*1598 ANTENNA__1429__I
*1599 ANTENNA__1430__I
*1600 ANTENNA__1431__B1
*1601 ANTENNA__1432__I
*1602 ANTENNA__1433__B
*1603 ANTENNA__1434__I
*1604 ANTENNA__1435__I
*1605 ANTENNA__1438__A1
*1606 ANTENNA__1438__B
*1607 ANTENNA__1440__A2
*1608 ANTENNA__1441__A1
*1609 ANTENNA__1450__A1
*1610 ANTENNA__1454__A2
*1611 ANTENNA__1454__B2
*1612 ANTENNA__1456__A2
*1613 ANTENNA__1456__B1
*1614 ANTENNA__1457__A2
*1615 ANTENNA__1457__B1
*1616 ANTENNA__1457__C1
*1617 ANTENNA__1458__A2
*1618 ANTENNA__1458__B1
*1619 ANTENNA__1460__I
*1620 ANTENNA__1461__C1
*1621 ANTENNA__1465__I1
*1622 ANTENNA__1466__I0
*1623 ANTENNA__1466__I1
*1624 ANTENNA__1467__A2
*1625 ANTENNA__1468__A2
*1626 ANTENNA__1473__B
*1627 ANTENNA__1475__A1
*1628 ANTENNA__1475__A2
*1629 ANTENNA__1475__B2
*1630 ANTENNA__1476__I
*1631 ANTENNA__1477__A2
*1632 ANTENNA__1477__B1
*1633 ANTENNA__1478__B1
*1634 ANTENNA__1478__C1
*1635 ANTENNA__1479__A2
*1636 ANTENNA__1481__I
*1637 ANTENNA__1483__B1
*1638 ANTENNA__1484__B
*1639 ANTENNA__1488__A2
*1640 ANTENNA__1489__A1
*1641 ANTENNA__1490__A1
*1642 ANTENNA__1497__A1
*1643 ANTENNA__1498__A2
*1644 ANTENNA__1498__B2
*1645 ANTENNA__1501__B1
*1646 ANTENNA__1501__C1
*1647 ANTENNA__1502__A2
*1648 ANTENNA__1505__A1
*1649 ANTENNA__1505__A2
*1650 ANTENNA__1507__A2
*1651 ANTENNA__1507__B1
*1652 ANTENNA__1507__C1
*1653 ANTENNA__1508__A2
*1654 ANTENNA__1508__B1
*1655 ANTENNA__1509__A2
*1656 ANTENNA__1509__B1
*1657 ANTENNA__1511__I0
*1658 ANTENNA__1511__S
*1659 ANTENNA__1519__B2
*1660 ANTENNA__1521__I
*1661 ANTENNA__1522__I
*1662 ANTENNA__1524__I
*1663 ANTENNA__1525__I
*1664 ANTENNA__1526__I
*1665 ANTENNA__1528__I
*1666 ANTENNA__1529__I
*1667 ANTENNA__1532__I
*1668 ANTENNA__1539__I
*1669 ANTENNA__1542__B
*1670 ANTENNA__1554__A2
*1671 ANTENNA__1555__A2
*1672 ANTENNA__1558__A1
*1673 ANTENNA__1559__A2
*1674 ANTENNA__1561__A2
*1675 ANTENNA__1567__A2
*1676 ANTENNA__1575__A2
*1677 ANTENNA__1576__A2
*1678 ANTENNA__1580__A2
*1679 ANTENNA__1580__B2
*1680 ANTENNA__1588__A2
*1681 ANTENNA__1595__A2
*1682 ANTENNA__1601__B
*1683 ANTENNA__1603__A2
*1684 ANTENNA__1604__A2
*1685 ANTENNA__1604__B2
*1686 ANTENNA__1608__A1
*1687 ANTENNA__1608__C2
*1688 ANTENNA__1613__A1
*1689 ANTENNA__1615__A1
*1690 ANTENNA__1619__A2
*1691 ANTENNA__1620__A1
*1692 ANTENNA__1623__A1
*1693 ANTENNA__1623__B
*1694 ANTENNA__1624__A1
*1695 ANTENNA__1624__A2
*1696 ANTENNA__1627__I
*1697 ANTENNA__1628__A2
*1698 ANTENNA__1630__A1
*1699 ANTENNA__1632__I
*1700 ANTENNA__1633__A1
*1701 ANTENNA__1635__I
*1702 ANTENNA__1636__I
*1703 ANTENNA__1639__A1
*1704 ANTENNA__1642__I
*1705 ANTENNA__1643__S
*1706 ANTENNA__1646__I
*1707 ANTENNA__1648__I
*1708 ANTENNA__1649__A1
*1709 ANTENNA__1649__A2
*1710 ANTENNA__1649__B1
*1711 ANTENNA__1649__B2
*1712 ANTENNA__1650__A1
*1713 ANTENNA__1650__A2
*1714 ANTENNA__1651__I
*1715 ANTENNA__1652__S
*1716 ANTENNA__1654__I
*1717 ANTENNA__1655__A2
*1718 ANTENNA__1656__A1
*1719 ANTENNA__1657__I
*1720 ANTENNA__1658__A1
*1721 ANTENNA__1659__A1
*1722 ANTENNA__1660__I
*1723 ANTENNA__1662__A1
*1724 ANTENNA__1662__A2
*1725 ANTENNA__1662__B2
*1726 ANTENNA__1665__I
*1727 ANTENNA__1666__S
*1728 ANTENNA__1668__A3
*1729 ANTENNA__1669__A1
*1730 ANTENNA__1670__A1
*1731 ANTENNA__1673__I1
*1732 ANTENNA__1673__S
*1733 ANTENNA__1675__A2
*1734 ANTENNA__1676__A1
*1735 ANTENNA__1676__A3
*1736 ANTENNA__1676__A4
*1737 ANTENNA__1677__A1
*1738 ANTENNA__1677__A2
*1739 ANTENNA__1678__A1
*1740 ANTENNA__1678__A2
*1741 ANTENNA__1678__B2
*1742 ANTENNA__1679__A2
*1743 ANTENNA__1681__I1
*1744 ANTENNA__1681__S
*1745 ANTENNA__1683__A1
*1746 ANTENNA__1683__A2
*1747 ANTENNA__1684__A1
*1748 ANTENNA__1685__A1
*1749 ANTENNA__1687__I
*1750 ANTENNA__1688__I1
*1751 ANTENNA__1688__S
*1752 ANTENNA__1690__A1
*1753 ANTENNA__1690__A2
*1754 ANTENNA__1690__A3
*1755 ANTENNA__1691__A1
*1756 ANTENNA__1693__A1
*1757 ANTENNA__1693__B1
*1758 ANTENNA__1693__B2