*SPEF "ieee 1481-1999"
*DESIGN "tjrpu"
*DATE "11:11:11 Fri 11 11, 1111"
*VENDOR "OpenRCX"
*PROGRAM "Parallel Extraction"
*VERSION "1.0"
*DESIGN_FLOW "NAME_SCOPE LOCAL" "PIN_CAP NONE"
*DIVIDER /
*DELIMITER :
*BUS_DELIMITER []
*T_UNIT 1 NS
*C_UNIT 1 PF
*R_UNIT 1 OHM
*L_UNIT 1 HENRY

*NAME_MAP
*1 io_in[0]
*2 io_in[10]
*3 io_in[11]
*4 io_in[12]
*5 io_in[13]
*6 io_in[14]
*7 io_in[15]
*8 io_in[1]
*9 io_in[2]
*10 io_in[3]
*11 io_in[4]
*12 io_in[5]
*13 io_in[6]
*14 io_in[7]
*15 io_in[8]
*16 io_in[9]
*17 net1
*18 net11
*19 net12
*20 net13
*21 net14
*22 net15
*23 net16
*24 net2
*25 net3
*26 net4
*27 net5
*28 net6
*29 net7
*30 net8
*31 net9
*32 net10
*33 net17
*34 net27
*35 net28
*36 net29
*37 net30
*38 net31
*39 net32
*40 net18
*41 net19
*42 net20
*43 net21
*44 net22
*45 net23
*46 net24
*47 net25
*48 net26
*49 net33
*50 net34
*51 net35
*52 la_data_in[0]
*53 la_data_in[10]
*54 la_data_in[11]
*55 la_data_in[12]
*56 la_data_in[13]
*57 la_data_in[14]
*58 la_data_in[15]
*59 la_data_in[16]
*60 la_data_in[17]
*61 la_data_in[18]
*62 la_data_in[19]
*63 la_data_in[1]
*64 la_data_in[20]
*65 la_data_in[21]
*66 la_data_in[22]
*67 la_data_in[23]
*68 la_data_in[24]
*69 la_data_in[25]
*70 la_data_in[26]
*71 la_data_in[27]
*72 la_data_in[28]
*73 la_data_in[29]
*74 la_data_in[2]
*75 la_data_in[30]
*76 la_data_in[31]
*77 la_data_in[32]
*78 la_data_in[33]
*79 la_data_in[34]
*80 la_data_in[35]
*81 la_data_in[36]
*82 la_data_in[37]
*83 la_data_in[38]
*84 la_data_in[39]
*85 la_data_in[3]
*86 la_data_in[40]
*87 la_data_in[41]
*88 la_data_in[42]
*89 la_data_in[43]
*90 la_data_in[44]
*91 la_data_in[45]
*92 la_data_in[46]
*93 la_data_in[47]
*94 la_data_in[48]
*95 la_data_in[49]
*96 la_data_in[4]
*97 la_data_in[50]
*98 la_data_in[51]
*99 la_data_in[52]
*100 la_data_in[53]
*101 la_data_in[54]
*102 la_data_in[55]
*103 la_data_in[56]
*104 la_data_in[57]
*105 la_data_in[58]
*106 la_data_in[59]
*107 la_data_in[5]
*108 la_data_in[60]
*109 la_data_in[61]
*110 la_data_in[62]
*111 la_data_in[63]
*112 la_data_in[6]
*113 la_data_in[7]
*114 la_data_in[8]
*115 la_data_in[9]
*116 net36
*117 net46
*118 net47
*119 net48
*120 net49
*121 net50
*122 net51
*123 net52
*124 net53
*125 net54
*126 net55
*127 net37
*128 net56
*129 net57
*130 net58
*131 net59
*132 net60
*133 net61
*134 net62
*135 net63
*136 net64
*137 net65
*138 net38
*139 net66
*140 net67
*141 net68
*142 net69
*143 net70
*144 net71
*145 net72
*146 net73
*147 net74
*148 net75
*149 net39
*150 net76
*151 net77
*152 net78
*153 net79
*154 net80
*155 net81
*156 net82
*157 net83
*158 net84
*159 net85
*160 net40
*161 net86
*162 net87
*163 net88
*164 net89
*165 net90
*166 net91
*167 net92
*168 net93
*169 net94
*170 net95
*171 net41
*172 net96
*173 net97
*174 net98
*175 net99
*176 net42
*177 net43
*178 net44
*179 net45
*180 la_oenb[0]
*181 la_oenb[10]
*182 la_oenb[11]
*183 la_oenb[12]
*184 la_oenb[13]
*185 la_oenb[14]
*186 la_oenb[15]
*187 la_oenb[16]
*188 la_oenb[17]
*189 la_oenb[18]
*190 la_oenb[19]
*191 la_oenb[1]
*192 la_oenb[20]
*193 la_oenb[21]
*194 la_oenb[22]
*195 la_oenb[23]
*196 la_oenb[24]
*197 la_oenb[25]
*198 la_oenb[26]
*199 la_oenb[27]
*200 la_oenb[28]
*201 la_oenb[29]
*202 la_oenb[2]
*203 la_oenb[30]
*204 la_oenb[31]
*205 la_oenb[32]
*206 la_oenb[33]
*207 la_oenb[34]
*208 la_oenb[35]
*209 la_oenb[36]
*210 la_oenb[37]
*211 la_oenb[38]
*212 la_oenb[39]
*213 la_oenb[3]
*214 la_oenb[40]
*215 la_oenb[41]
*216 la_oenb[42]
*217 la_oenb[43]
*218 la_oenb[44]
*219 la_oenb[45]
*220 la_oenb[46]
*221 la_oenb[47]
*222 la_oenb[48]
*223 la_oenb[49]
*224 la_oenb[4]
*225 la_oenb[50]
*226 la_oenb[51]
*227 la_oenb[52]
*228 la_oenb[53]
*229 la_oenb[54]
*230 la_oenb[55]
*231 la_oenb[56]
*232 la_oenb[57]
*233 la_oenb[58]
*234 la_oenb[59]
*235 la_oenb[5]
*236 la_oenb[60]
*237 la_oenb[61]
*238 la_oenb[62]
*239 la_oenb[63]
*240 la_oenb[6]
*241 la_oenb[7]
*242 la_oenb[8]
*243 la_oenb[9]
*246 wb_clk_i
*247 wb_rst_i
*248 net100
*249 wbs_adr_i[0]
*250 wbs_adr_i[10]
*251 wbs_adr_i[11]
*252 wbs_adr_i[12]
*253 wbs_adr_i[13]
*254 wbs_adr_i[14]
*255 wbs_adr_i[15]
*256 wbs_adr_i[16]
*257 wbs_adr_i[17]
*258 wbs_adr_i[18]
*259 wbs_adr_i[19]
*260 wbs_adr_i[1]
*261 wbs_adr_i[20]
*262 wbs_adr_i[21]
*263 wbs_adr_i[22]
*264 wbs_adr_i[23]
*265 wbs_adr_i[24]
*266 wbs_adr_i[25]
*267 wbs_adr_i[26]
*268 wbs_adr_i[27]
*269 wbs_adr_i[28]
*270 wbs_adr_i[29]
*271 wbs_adr_i[2]
*272 wbs_adr_i[30]
*273 wbs_adr_i[31]
*274 wbs_adr_i[3]
*275 wbs_adr_i[4]
*276 wbs_adr_i[5]
*277 wbs_adr_i[6]
*278 wbs_adr_i[7]
*279 wbs_adr_i[8]
*280 wbs_adr_i[9]
*281 wbs_cyc_i
*282 wbs_dat_i[0]
*283 wbs_dat_i[10]
*284 wbs_dat_i[11]
*285 wbs_dat_i[12]
*286 wbs_dat_i[13]
*287 wbs_dat_i[14]
*288 wbs_dat_i[15]
*289 wbs_dat_i[16]
*290 wbs_dat_i[17]
*291 wbs_dat_i[18]
*292 wbs_dat_i[19]
*293 wbs_dat_i[1]
*294 wbs_dat_i[20]
*295 wbs_dat_i[21]
*296 wbs_dat_i[22]
*297 wbs_dat_i[23]
*298 wbs_dat_i[24]
*299 wbs_dat_i[25]
*300 wbs_dat_i[26]
*301 wbs_dat_i[27]
*302 wbs_dat_i[28]
*303 wbs_dat_i[29]
*304 wbs_dat_i[2]
*305 wbs_dat_i[30]
*306 wbs_dat_i[31]
*307 wbs_dat_i[3]
*308 wbs_dat_i[4]
*309 wbs_dat_i[5]
*310 wbs_dat_i[6]
*311 wbs_dat_i[7]
*312 wbs_dat_i[8]
*313 wbs_dat_i[9]
*314 net101
*315 net111
*316 net112
*317 net113
*318 net114
*319 net115
*320 net116
*321 net117
*322 net118
*323 net119
*324 net120
*325 net102
*326 net121
*327 net122
*328 net123
*329 net124
*330 net125
*331 net126
*332 net127
*333 net128
*334 net129
*335 net130
*336 net103
*337 net131
*338 net132
*339 net104
*340 net105
*341 net106
*342 net107
*343 net108
*344 net109
*345 net110
*346 wbs_sel_i[0]
*347 wbs_sel_i[1]
*348 wbs_sel_i[2]
*349 wbs_sel_i[3]
*350 wbs_stb_i
*351 wbs_we_i
*352 FILLER_0_0_1003
*353 FILLER_0_0_1019
*354 FILLER_0_0_1022
*355 FILLER_0_0_1038
*356 FILLER_0_0_104
*357 FILLER_0_0_1046
*358 FILLER_0_0_1051
*359 FILLER_0_0_1053
*360 FILLER_0_0_1056
*361 FILLER_0_0_1090
*362 FILLER_0_0_1094
*363 FILLER_0_0_1099
*364 FILLER_0_0_1115
*365 FILLER_0_0_1119
*366 FILLER_0_0_112
*367 FILLER_0_0_1121
*368 FILLER_0_0_1124
*369 FILLER_0_0_1140
*370 FILLER_0_0_1142
*371 FILLER_0_0_1147
*372 FILLER_0_0_1155
*373 FILLER_0_0_1158
*374 FILLER_0_0_116
*375 FILLER_0_0_118
*376 FILLER_0_0_1196
*377 FILLER_0_0_1212
*378 FILLER_0_0_1220
*379 FILLER_0_0_1226
*380 FILLER_0_0_123
*381 FILLER_0_0_1234
*382 FILLER_0_0_1238
*383 FILLER_0_0_1243
*384 FILLER_0_0_1251
*385 FILLER_0_0_1255
*386 FILLER_0_0_1257
*387 FILLER_0_0_1260
*388 FILLER_0_0_1276
*389 FILLER_0_0_1284
*390 FILLER_0_0_1286
*391 FILLER_0_0_1291
*392 FILLER_0_0_1294
*393 FILLER_0_0_131
*394 FILLER_0_0_1328
*395 FILLER_0_0_1332
*396 FILLER_0_0_1334
*397 FILLER_0_0_1339
*398 FILLER_0_0_135
*399 FILLER_0_0_1355
*400 FILLER_0_0_1359
*401 FILLER_0_0_1362
*402 FILLER_0_0_1378
*403 FILLER_0_0_138
*404 FILLER_0_0_1382
*405 FILLER_0_0_1387
*406 FILLER_0_0_1391
*407 FILLER_0_0_1393
*408 FILLER_0_0_1396
*409 FILLER_0_0_1430
*410 FILLER_0_0_1435
*411 FILLER_0_0_1451
*412 FILLER_0_0_1459
*413 FILLER_0_0_1461
*414 FILLER_0_0_1464
*415 FILLER_0_0_1472
*416 FILLER_0_0_1476
*417 FILLER_0_0_1478
*418 FILLER_0_0_1483
*419 FILLER_0_0_1491
*420 FILLER_0_0_1495
*421 FILLER_0_0_1498
*422 FILLER_0_0_1536
*423 FILLER_0_0_1552
*424 FILLER_0_0_1560
*425 FILLER_0_0_1566
*426 FILLER_0_0_1574
*427 FILLER_0_0_1579
*428 FILLER_0_0_1595
*429 FILLER_0_0_1597
*430 FILLER_0_0_1600
*431 FILLER_0_0_1616
*432 FILLER_0_0_1620
*433 FILLER_0_0_1622
*434 FILLER_0_0_1627
*435 FILLER_0_0_1631
*436 FILLER_0_0_1634
*437 FILLER_0_0_1668
*438 FILLER_0_0_1670
*439 FILLER_0_0_1675
*440 FILLER_0_0_1691
*441 FILLER_0_0_1699
*442 FILLER_0_0_1702
*443 FILLER_0_0_1718
*444 FILLER_0_0_172
*445 FILLER_0_0_1723
*446 FILLER_0_0_1731
*447 FILLER_0_0_1733
*448 FILLER_0_0_1736
*449 FILLER_0_0_1774
*450 FILLER_0_0_1790
*451 FILLER_0_0_1798
*452 FILLER_0_0_1808
*453 FILLER_0_0_1824
*454 FILLER_0_0_1832
*455 FILLER_0_0_1838
*456 FILLER_0_0_1846
*457 FILLER_0_0_1851
*458 FILLER_0_0_1867
*459 FILLER_0_0_1869
*460 FILLER_0_0_1872
*461 FILLER_0_0_1888
*462 FILLER_0_0_1892
*463 FILLER_0_0_1894
*464 FILLER_0_0_1899
*465 FILLER_0_0_1903
*466 FILLER_0_0_1906
*467 FILLER_0_0_1940
*468 FILLER_0_0_1942
*469 FILLER_0_0_1947
*470 FILLER_0_0_1963
*471 FILLER_0_0_1971
*472 FILLER_0_0_1974
*473 FILLER_0_0_1990
*474 FILLER_0_0_1995
*475 FILLER_0_0_2
*476 FILLER_0_0_2003
*477 FILLER_0_0_2005
*478 FILLER_0_0_2008
*479 FILLER_0_0_2046
*480 FILLER_0_0_206
*481 FILLER_0_0_2062
*482 FILLER_0_0_2070
*483 FILLER_0_0_2076
*484 FILLER_0_0_2084
*485 FILLER_0_0_2086
*486 FILLER_0_0_2091
*487 FILLER_0_0_2107
*488 FILLER_0_0_2110
*489 FILLER_0_0_2126
*490 FILLER_0_0_2134
*491 FILLER_0_0_2139
*492 FILLER_0_0_214
*493 FILLER_0_0_2141
*494 FILLER_0_0_2144
*495 FILLER_0_0_2178
*496 FILLER_0_0_2182
*497 FILLER_0_0_2187
*498 FILLER_0_0_219
*499 FILLER_0_0_2203
*500 FILLER_0_0_2207
*501 FILLER_0_0_2209
*502 FILLER_0_0_2212
*503 FILLER_0_0_2228
*504 FILLER_0_0_2230
*505 FILLER_0_0_2235
*506 FILLER_0_0_2243
*507 FILLER_0_0_2246
*508 FILLER_0_0_2284
*509 FILLER_0_0_2300
*510 FILLER_0_0_2308
*511 FILLER_0_0_2314
*512 FILLER_0_0_2322
*513 FILLER_0_0_2326
*514 FILLER_0_0_2331
*515 FILLER_0_0_2339
*516 FILLER_0_0_2343
*517 FILLER_0_0_2345
*518 FILLER_0_0_2348
*519 FILLER_0_0_235
*520 FILLER_0_0_2364
*521 FILLER_0_0_237
*522 FILLER_0_0_2372
*523 FILLER_0_0_2374
*524 FILLER_0_0_2379
*525 FILLER_0_0_2382
*526 FILLER_0_0_240
*527 FILLER_0_0_2416
*528 FILLER_0_0_2420
*529 FILLER_0_0_2422
*530 FILLER_0_0_2427
*531 FILLER_0_0_2443
*532 FILLER_0_0_2447
*533 FILLER_0_0_2450
*534 FILLER_0_0_2466
*535 FILLER_0_0_2470
*536 FILLER_0_0_2475
*537 FILLER_0_0_2479
*538 FILLER_0_0_2481
*539 FILLER_0_0_2484
*540 FILLER_0_0_2518
*541 FILLER_0_0_2523
*542 FILLER_0_0_2539
*543 FILLER_0_0_2547
*544 FILLER_0_0_2549
*545 FILLER_0_0_2552
*546 FILLER_0_0_2560
*547 FILLER_0_0_2564
*548 FILLER_0_0_2566
*549 FILLER_0_0_2571
*550 FILLER_0_0_2579
*551 FILLER_0_0_2583
*552 FILLER_0_0_2586
*553 FILLER_0_0_2624
*554 FILLER_0_0_2640
*555 FILLER_0_0_2648
*556 FILLER_0_0_2654
*557 FILLER_0_0_2662
*558 FILLER_0_0_2667
*559 FILLER_0_0_2683
*560 FILLER_0_0_2685
*561 FILLER_0_0_2688
*562 FILLER_0_0_2704
*563 FILLER_0_0_2708
*564 FILLER_0_0_2710
*565 FILLER_0_0_2715
*566 FILLER_0_0_2719
*567 FILLER_0_0_2722
*568 FILLER_0_0_274
*569 FILLER_0_0_2756
*570 FILLER_0_0_2758
*571 FILLER_0_0_2763
*572 FILLER_0_0_2779
*573 FILLER_0_0_278
*574 FILLER_0_0_2787
*575 FILLER_0_0_2790
*576 FILLER_0_0_2806
*577 FILLER_0_0_2811
*578 FILLER_0_0_2819
*579 FILLER_0_0_2821
*580 FILLER_0_0_2824
*581 FILLER_0_0_283
*582 FILLER_0_0_2862
*583 FILLER_0_0_2878
*584 FILLER_0_0_2886
*585 FILLER_0_0_2892
*586 FILLER_0_0_2900
*587 FILLER_0_0_2902
*588 FILLER_0_0_2907
*589 FILLER_0_0_2923
*590 FILLER_0_0_2926
*591 FILLER_0_0_2942
*592 FILLER_0_0_2950
*593 FILLER_0_0_2955
*594 FILLER_0_0_2957
*595 FILLER_0_0_2960
*596 FILLER_0_0_299
*597 FILLER_0_0_2994
*598 FILLER_0_0_2998
*599 FILLER_0_0_3003
*600 FILLER_0_0_3019
*601 FILLER_0_0_3023
*602 FILLER_0_0_3025
*603 FILLER_0_0_3028
*604 FILLER_0_0_303
*605 FILLER_0_0_3044
*606 FILLER_0_0_3046
*607 FILLER_0_0_305
*608 FILLER_0_0_3051
*609 FILLER_0_0_3059
*610 FILLER_0_0_3062
*611 FILLER_0_0_308
*612 FILLER_0_0_3100
*613 FILLER_0_0_3116
*614 FILLER_0_0_3124
*615 FILLER_0_0_3130
*616 FILLER_0_0_3138
*617 FILLER_0_0_3142
*618 FILLER_0_0_3147
*619 FILLER_0_0_3155
*620 FILLER_0_0_3159
*621 FILLER_0_0_3161
*622 FILLER_0_0_3164
*623 FILLER_0_0_3180
*624 FILLER_0_0_3188
*625 FILLER_0_0_3190
*626 FILLER_0_0_3195
*627 FILLER_0_0_3198
*628 FILLER_0_0_3232
*629 FILLER_0_0_3236
*630 FILLER_0_0_3238
*631 FILLER_0_0_3243
*632 FILLER_0_0_3259
*633 FILLER_0_0_3263
*634 FILLER_0_0_3266
*635 FILLER_0_0_3282
*636 FILLER_0_0_3286
*637 FILLER_0_0_3291
*638 FILLER_0_0_3295
*639 FILLER_0_0_3297
*640 FILLER_0_0_3300
*641 FILLER_0_0_3334
*642 FILLER_0_0_3339
*643 FILLER_0_0_3355
*644 FILLER_0_0_3363
*645 FILLER_0_0_3365
*646 FILLER_0_0_3368
*647 FILLER_0_0_3376
*648 FILLER_0_0_3380
*649 FILLER_0_0_3382
*650 FILLER_0_0_3387
*651 FILLER_0_0_3395
*652 FILLER_0_0_3399
*653 FILLER_0_0_3402
*654 FILLER_0_0_342
*655 FILLER_0_0_3440
*656 FILLER_0_0_3456
*657 FILLER_0_0_3464
*658 FILLER_0_0_347
*659 FILLER_0_0_3470
*660 FILLER_0_0_3478
*661 FILLER_0_0_3483
*662 FILLER_0_0_3499
*663 FILLER_0_0_3501
*664 FILLER_0_0_3504
*665 FILLER_0_0_3520
*666 FILLER_0_0_3524
*667 FILLER_0_0_3526
*668 FILLER_0_0_3531
*669 FILLER_0_0_3535
*670 FILLER_0_0_3538
*671 FILLER_0_0_3572
*672 FILLER_0_0_3574
*673 FILLER_0_0_3579
*674 FILLER_0_0_3595
*675 FILLER_0_0_36
*676 FILLER_0_0_3603
*677 FILLER_0_0_3606
*678 FILLER_0_0_3622
*679 FILLER_0_0_3627
*680 FILLER_0_0_363
*681 FILLER_0_0_3635
*682 FILLER_0_0_3637
*683 FILLER_0_0_3640
*684 FILLER_0_0_3678
*685 FILLER_0_0_3694
*686 FILLER_0_0_3702
*687 FILLER_0_0_3708
*688 FILLER_0_0_371
*689 FILLER_0_0_3716
*690 FILLER_0_0_3718
*691 FILLER_0_0_3723
*692 FILLER_0_0_373
*693 FILLER_0_0_3739
*694 FILLER_0_0_3742
*695 FILLER_0_0_3758
*696 FILLER_0_0_376
*697 FILLER_0_0_3766
*698 FILLER_0_0_3771
*699 FILLER_0_0_3773
*700 FILLER_0_0_3776
*701 FILLER_0_0_3810
*702 FILLER_0_0_3814
*703 FILLER_0_0_3819
*704 FILLER_0_0_3835
*705 FILLER_0_0_3839
*706 FILLER_0_0_3841
*707 FILLER_0_0_3844
*708 FILLER_0_0_3860
*709 FILLER_0_0_3862
*710 FILLER_0_0_3867
*711 FILLER_0_0_3875
*712 FILLER_0_0_3878
*713 FILLER_0_0_3916
*714 FILLER_0_0_3932
*715 FILLER_0_0_3940
*716 FILLER_0_0_3946
*717 FILLER_0_0_3954
*718 FILLER_0_0_3958
*719 FILLER_0_0_3963
*720 FILLER_0_0_3971
*721 FILLER_0_0_3975
*722 FILLER_0_0_3977
*723 FILLER_0_0_3980
*724 FILLER_0_0_3996
*725 FILLER_0_0_4004
*726 FILLER_0_0_4006
*727 FILLER_0_0_4011
*728 FILLER_0_0_4014
*729 FILLER_0_0_4048
*730 FILLER_0_0_4052
*731 FILLER_0_0_4054
*732 FILLER_0_0_4059
*733 FILLER_0_0_4075
*734 FILLER_0_0_4079
*735 FILLER_0_0_4082
*736 FILLER_0_0_4098
*737 FILLER_0_0_4102
*738 FILLER_0_0_4107
*739 FILLER_0_0_4111
*740 FILLER_0_0_4113
*741 FILLER_0_0_4116
*742 FILLER_0_0_414
*743 FILLER_0_0_4150
*744 FILLER_0_0_4155
*745 FILLER_0_0_4171
*746 FILLER_0_0_4179
*747 FILLER_0_0_4181
*748 FILLER_0_0_4184
*749 FILLER_0_0_4192
*750 FILLER_0_0_4196
*751 FILLER_0_0_4198
*752 FILLER_0_0_4203
*753 FILLER_0_0_4211
*754 FILLER_0_0_4215
*755 FILLER_0_0_4218
*756 FILLER_0_0_4256
*757 FILLER_0_0_4272
*758 FILLER_0_0_4280
*759 FILLER_0_0_4286
*760 FILLER_0_0_4294
*761 FILLER_0_0_4299
*762 FILLER_0_0_430
*763 FILLER_0_0_4315
*764 FILLER_0_0_4317
*765 FILLER_0_0_4320
*766 FILLER_0_0_4336
*767 FILLER_0_0_4340
*768 FILLER_0_0_4342
*769 FILLER_0_0_4347
*770 FILLER_0_0_4351
*771 FILLER_0_0_4354
*772 FILLER_0_0_438
*773 FILLER_0_0_4388
*774 FILLER_0_0_4390
*775 FILLER_0_0_4395
*776 FILLER_0_0_4411
*777 FILLER_0_0_4419
*778 FILLER_0_0_4422
*779 FILLER_0_0_4438
*780 FILLER_0_0_444
*781 FILLER_0_0_4443
*782 FILLER_0_0_4451
*783 FILLER_0_0_4453
*784 FILLER_0_0_4456
*785 FILLER_0_0_4494
*786 FILLER_0_0_4510
*787 FILLER_0_0_4518
*788 FILLER_0_0_4524
*789 FILLER_0_0_4532
*790 FILLER_0_0_4534
*791 FILLER_0_0_4539
*792 FILLER_0_0_4555
*793 FILLER_0_0_4558
*794 FILLER_0_0_4574
*795 FILLER_0_0_4582
*796 FILLER_0_0_4587
*797 FILLER_0_0_4589
*798 FILLER_0_0_4592
*799 FILLER_0_0_460
*800 FILLER_0_0_4626
*801 FILLER_0_0_4630
*802 FILLER_0_0_4635
*803 FILLER_0_0_4651
*804 FILLER_0_0_4655
*805 FILLER_0_0_4657
*806 FILLER_0_0_4660
*807 FILLER_0_0_4676
*808 FILLER_0_0_4678
*809 FILLER_0_0_468
*810 FILLER_0_0_4683
*811 FILLER_0_0_4691
*812 FILLER_0_0_4694
*813 FILLER_0_0_470
*814 FILLER_0_0_4732
*815 FILLER_0_0_4748
*816 FILLER_0_0_475
*817 FILLER_0_0_4756
*818 FILLER_0_0_4762
*819 FILLER_0_0_4770
*820 FILLER_0_0_4774
*821 FILLER_0_0_4779
*822 FILLER_0_0_478
*823 FILLER_0_0_4787
*824 FILLER_0_0_4791
*825 FILLER_0_0_4793
*826 FILLER_0_0_4796
*827 FILLER_0_0_4812
*828 FILLER_0_0_4820
*829 FILLER_0_0_4822
*830 FILLER_0_0_4827
*831 FILLER_0_0_4830
*832 FILLER_0_0_4846
*833 FILLER_0_0_4854
*834 FILLER_0_0_4859
*835 FILLER_0_0_4861
*836 FILLER_0_0_4864
*837 FILLER_0_0_4868
*838 FILLER_0_0_4870
*839 FILLER_0_0_4875
*840 FILLER_0_0_4883
*841 FILLER_0_0_4891
*842 FILLER_0_0_4895
*843 FILLER_0_0_4898
*844 FILLER_0_0_4932
*845 FILLER_0_0_4966
*846 FILLER_0_0_512
*847 FILLER_0_0_516
*848 FILLER_0_0_518
*849 FILLER_0_0_523
*850 FILLER_0_0_539
*851 FILLER_0_0_543
*852 FILLER_0_0_546
*853 FILLER_0_0_562
*854 FILLER_0_0_566
*855 FILLER_0_0_571
*856 FILLER_0_0_575
*857 FILLER_0_0_577
*858 FILLER_0_0_580
*859 FILLER_0_0_614
*860 FILLER_0_0_619
*861 FILLER_0_0_635
*862 FILLER_0_0_643
*863 FILLER_0_0_645
*864 FILLER_0_0_648
*865 FILLER_0_0_656
*866 FILLER_0_0_660
*867 FILLER_0_0_662
*868 FILLER_0_0_667
*869 FILLER_0_0_675
*870 FILLER_0_0_679
*871 FILLER_0_0_682
*872 FILLER_0_0_70
*873 FILLER_0_0_720
*874 FILLER_0_0_736
*875 FILLER_0_0_744
*876 FILLER_0_0_750
*877 FILLER_0_0_758
*878 FILLER_0_0_763
*879 FILLER_0_0_779
*880 FILLER_0_0_781
*881 FILLER_0_0_784
*882 FILLER_0_0_800
*883 FILLER_0_0_804
*884 FILLER_0_0_806
*885 FILLER_0_0_811
*886 FILLER_0_0_815
*887 FILLER_0_0_818
*888 FILLER_0_0_852
*889 FILLER_0_0_854
*890 FILLER_0_0_859
*891 FILLER_0_0_875
*892 FILLER_0_0_883
*893 FILLER_0_0_886
*894 FILLER_0_0_902
*895 FILLER_0_0_907
*896 FILLER_0_0_915
*897 FILLER_0_0_917
*898 FILLER_0_0_920
*899 FILLER_0_0_958
*900 FILLER_0_0_974
*901 FILLER_0_0_982
*902 FILLER_0_0_988
*903 FILLER_0_0_996
*904 FILLER_0_0_998
*905 FILLER_0_100_101
*906 FILLER_0_100_1011
*907 FILLER_0_100_1017
*908 FILLER_0_100_107
*909 FILLER_0_100_1081
*910 FILLER_0_100_1087
*911 FILLER_0_100_1151
*912 FILLER_0_100_1157
*913 FILLER_0_100_1221
*914 FILLER_0_100_1227
*915 FILLER_0_100_1291
*916 FILLER_0_100_1297
*917 FILLER_0_100_1361
*918 FILLER_0_100_1367
*919 FILLER_0_100_1431
*920 FILLER_0_100_1437
*921 FILLER_0_100_1501
*922 FILLER_0_100_1507
*923 FILLER_0_100_1571
*924 FILLER_0_100_1577
*925 FILLER_0_100_1641
*926 FILLER_0_100_1647
*927 FILLER_0_100_171
*928 FILLER_0_100_1711
*929 FILLER_0_100_1717
*930 FILLER_0_100_177
*931 FILLER_0_100_1781
*932 FILLER_0_100_1787
*933 FILLER_0_100_1851
*934 FILLER_0_100_1857
*935 FILLER_0_100_1921
*936 FILLER_0_100_1927
*937 FILLER_0_100_1991
*938 FILLER_0_100_1997
*939 FILLER_0_100_2
*940 FILLER_0_100_2061
*941 FILLER_0_100_2067
*942 FILLER_0_100_2131
*943 FILLER_0_100_2137
*944 FILLER_0_100_2201
*945 FILLER_0_100_2207
*946 FILLER_0_100_2271
*947 FILLER_0_100_2277
*948 FILLER_0_100_2341
*949 FILLER_0_100_2347
*950 FILLER_0_100_241
*951 FILLER_0_100_2411
*952 FILLER_0_100_2417
*953 FILLER_0_100_247
*954 FILLER_0_100_2481
*955 FILLER_0_100_2487
*956 FILLER_0_100_2551
*957 FILLER_0_100_2557
*958 FILLER_0_100_2621
*959 FILLER_0_100_2627
*960 FILLER_0_100_2691
*961 FILLER_0_100_2697
*962 FILLER_0_100_2761
*963 FILLER_0_100_2767
*964 FILLER_0_100_2831
*965 FILLER_0_100_2837
*966 FILLER_0_100_2901
*967 FILLER_0_100_2907
*968 FILLER_0_100_2971
*969 FILLER_0_100_2977
*970 FILLER_0_100_3041
*971 FILLER_0_100_3047
*972 FILLER_0_100_311
*973 FILLER_0_100_3111
*974 FILLER_0_100_3117
*975 FILLER_0_100_317
*976 FILLER_0_100_3181
*977 FILLER_0_100_3187
*978 FILLER_0_100_3251
*979 FILLER_0_100_3257
*980 FILLER_0_100_3321
*981 FILLER_0_100_3327
*982 FILLER_0_100_3391
*983 FILLER_0_100_3397
*984 FILLER_0_100_34
*985 FILLER_0_100_3461
*986 FILLER_0_100_3467
*987 FILLER_0_100_3531
*988 FILLER_0_100_3537
*989 FILLER_0_100_3601
*990 FILLER_0_100_3607
*991 FILLER_0_100_3671
*992 FILLER_0_100_3677
*993 FILLER_0_100_37
*994 FILLER_0_100_3741
*995 FILLER_0_100_3747
*996 FILLER_0_100_381
*997 FILLER_0_100_3811
*998 FILLER_0_100_3817
*999 FILLER_0_100_387
*1000 FILLER_0_100_3881
*1001 FILLER_0_100_3887
*1002 FILLER_0_100_3951
*1003 FILLER_0_100_3957
*1004 FILLER_0_100_4021
*1005 FILLER_0_100_4027
*1006 FILLER_0_100_4091
*1007 FILLER_0_100_4097
*1008 FILLER_0_100_4161
*1009 FILLER_0_100_4167
*1010 FILLER_0_100_4231
*1011 FILLER_0_100_4237
*1012 FILLER_0_100_4301
*1013 FILLER_0_100_4307
*1014 FILLER_0_100_4371
*1015 FILLER_0_100_4377
*1016 FILLER_0_100_4441
*1017 FILLER_0_100_4447
*1018 FILLER_0_100_451
*1019 FILLER_0_100_4511
*1020 FILLER_0_100_4517
*1021 FILLER_0_100_457
*1022 FILLER_0_100_4581
*1023 FILLER_0_100_4587
*1024 FILLER_0_100_4651
*1025 FILLER_0_100_4657
*1026 FILLER_0_100_4721
*1027 FILLER_0_100_4727
*1028 FILLER_0_100_4791
*1029 FILLER_0_100_4797
*1030 FILLER_0_100_4861
*1031 FILLER_0_100_4867
*1032 FILLER_0_100_4931
*1033 FILLER_0_100_4937
*1034 FILLER_0_100_4969
*1035 FILLER_0_100_521
*1036 FILLER_0_100_527
*1037 FILLER_0_100_591
*1038 FILLER_0_100_597
*1039 FILLER_0_100_661
*1040 FILLER_0_100_667
*1041 FILLER_0_100_731
*1042 FILLER_0_100_737
*1043 FILLER_0_100_801
*1044 FILLER_0_100_807
*1045 FILLER_0_100_871
*1046 FILLER_0_100_877
*1047 FILLER_0_100_941
*1048 FILLER_0_100_947
*1049 FILLER_0_101_1046
*1050 FILLER_0_101_1052
*1051 FILLER_0_101_1116
*1052 FILLER_0_101_1122
*1053 FILLER_0_101_1186
*1054 FILLER_0_101_1192
*1055 FILLER_0_101_1256
*1056 FILLER_0_101_1262
*1057 FILLER_0_101_1326
*1058 FILLER_0_101_1332
*1059 FILLER_0_101_136
*1060 FILLER_0_101_1396
*1061 FILLER_0_101_1402
*1062 FILLER_0_101_142
*1063 FILLER_0_101_1466
*1064 FILLER_0_101_1472
*1065 FILLER_0_101_1536
*1066 FILLER_0_101_1542
*1067 FILLER_0_101_1606
*1068 FILLER_0_101_1612
*1069 FILLER_0_101_1676
*1070 FILLER_0_101_1682
*1071 FILLER_0_101_1746
*1072 FILLER_0_101_1752
*1073 FILLER_0_101_1816
*1074 FILLER_0_101_1822
*1075 FILLER_0_101_1886
*1076 FILLER_0_101_1892
*1077 FILLER_0_101_1956
*1078 FILLER_0_101_1962
*1079 FILLER_0_101_2
*1080 FILLER_0_101_2026
*1081 FILLER_0_101_2032
*1082 FILLER_0_101_206
*1083 FILLER_0_101_2096
*1084 FILLER_0_101_2102
*1085 FILLER_0_101_212
*1086 FILLER_0_101_2166
*1087 FILLER_0_101_2172
*1088 FILLER_0_101_2236
*1089 FILLER_0_101_2242
*1090 FILLER_0_101_2306
*1091 FILLER_0_101_2312
*1092 FILLER_0_101_2376
*1093 FILLER_0_101_2382
*1094 FILLER_0_101_2446
*1095 FILLER_0_101_2452
*1096 FILLER_0_101_2516
*1097 FILLER_0_101_2522
*1098 FILLER_0_101_2586
*1099 FILLER_0_101_2592
*1100 FILLER_0_101_2656
*1101 FILLER_0_101_2662
*1102 FILLER_0_101_2726
*1103 FILLER_0_101_2732
*1104 FILLER_0_101_276
*1105 FILLER_0_101_2796
*1106 FILLER_0_101_2802
*1107 FILLER_0_101_282
*1108 FILLER_0_101_2866
*1109 FILLER_0_101_2872
*1110 FILLER_0_101_2936
*1111 FILLER_0_101_2942
*1112 FILLER_0_101_3006
*1113 FILLER_0_101_3012
*1114 FILLER_0_101_3076
*1115 FILLER_0_101_3082
*1116 FILLER_0_101_3146
*1117 FILLER_0_101_3152
*1118 FILLER_0_101_3216
*1119 FILLER_0_101_3222
*1120 FILLER_0_101_3286
*1121 FILLER_0_101_3292
*1122 FILLER_0_101_3356
*1123 FILLER_0_101_3362
*1124 FILLER_0_101_3426
*1125 FILLER_0_101_3432
*1126 FILLER_0_101_346
*1127 FILLER_0_101_3496
*1128 FILLER_0_101_3502
*1129 FILLER_0_101_352
*1130 FILLER_0_101_3566
*1131 FILLER_0_101_3572
*1132 FILLER_0_101_3636
*1133 FILLER_0_101_3642
*1134 FILLER_0_101_3706
*1135 FILLER_0_101_3712
*1136 FILLER_0_101_3776
*1137 FILLER_0_101_3782
*1138 FILLER_0_101_3846
*1139 FILLER_0_101_3852
*1140 FILLER_0_101_3916
*1141 FILLER_0_101_3922
*1142 FILLER_0_101_3986
*1143 FILLER_0_101_3992
*1144 FILLER_0_101_4056
*1145 FILLER_0_101_4062
*1146 FILLER_0_101_4126
*1147 FILLER_0_101_4132
*1148 FILLER_0_101_416
*1149 FILLER_0_101_4196
*1150 FILLER_0_101_4202
*1151 FILLER_0_101_422
*1152 FILLER_0_101_4266
*1153 FILLER_0_101_4272
*1154 FILLER_0_101_4336
*1155 FILLER_0_101_4342
*1156 FILLER_0_101_4406
*1157 FILLER_0_101_4412
*1158 FILLER_0_101_4476
*1159 FILLER_0_101_4482
*1160 FILLER_0_101_4546
*1161 FILLER_0_101_4552
*1162 FILLER_0_101_4616
*1163 FILLER_0_101_4622
*1164 FILLER_0_101_4686
*1165 FILLER_0_101_4692
*1166 FILLER_0_101_4756
*1167 FILLER_0_101_4762
*1168 FILLER_0_101_4826
*1169 FILLER_0_101_4832
*1170 FILLER_0_101_486
*1171 FILLER_0_101_4896
*1172 FILLER_0_101_4902
*1173 FILLER_0_101_492
*1174 FILLER_0_101_4966
*1175 FILLER_0_101_4972
*1176 FILLER_0_101_556
*1177 FILLER_0_101_562
*1178 FILLER_0_101_626
*1179 FILLER_0_101_632
*1180 FILLER_0_101_66
*1181 FILLER_0_101_696
*1182 FILLER_0_101_702
*1183 FILLER_0_101_72
*1184 FILLER_0_101_766
*1185 FILLER_0_101_772
*1186 FILLER_0_101_836
*1187 FILLER_0_101_842
*1188 FILLER_0_101_906
*1189 FILLER_0_101_912
*1190 FILLER_0_101_976
*1191 FILLER_0_101_982
*1192 FILLER_0_102_101
*1193 FILLER_0_102_1011
*1194 FILLER_0_102_1017
*1195 FILLER_0_102_107
*1196 FILLER_0_102_1081
*1197 FILLER_0_102_1087
*1198 FILLER_0_102_1151
*1199 FILLER_0_102_1157
*1200 FILLER_0_102_1221
*1201 FILLER_0_102_1227
*1202 FILLER_0_102_1291
*1203 FILLER_0_102_1297
*1204 FILLER_0_102_1361
*1205 FILLER_0_102_1367
*1206 FILLER_0_102_1431
*1207 FILLER_0_102_1437
*1208 FILLER_0_102_1501
*1209 FILLER_0_102_1507
*1210 FILLER_0_102_1571
*1211 FILLER_0_102_1577
*1212 FILLER_0_102_1641
*1213 FILLER_0_102_1647
*1214 FILLER_0_102_171
*1215 FILLER_0_102_1711
*1216 FILLER_0_102_1717
*1217 FILLER_0_102_177
*1218 FILLER_0_102_1781
*1219 FILLER_0_102_1787
*1220 FILLER_0_102_1851
*1221 FILLER_0_102_1857
*1222 FILLER_0_102_1921
*1223 FILLER_0_102_1927
*1224 FILLER_0_102_1991
*1225 FILLER_0_102_1997
*1226 FILLER_0_102_2
*1227 FILLER_0_102_2061
*1228 FILLER_0_102_2067
*1229 FILLER_0_102_2131
*1230 FILLER_0_102_2137
*1231 FILLER_0_102_2201
*1232 FILLER_0_102_2207
*1233 FILLER_0_102_2271
*1234 FILLER_0_102_2277
*1235 FILLER_0_102_2341
*1236 FILLER_0_102_2347
*1237 FILLER_0_102_241
*1238 FILLER_0_102_2411
*1239 FILLER_0_102_2417
*1240 FILLER_0_102_247
*1241 FILLER_0_102_2481
*1242 FILLER_0_102_2487
*1243 FILLER_0_102_2551
*1244 FILLER_0_102_2557
*1245 FILLER_0_102_2621
*1246 FILLER_0_102_2627
*1247 FILLER_0_102_2691
*1248 FILLER_0_102_2697
*1249 FILLER_0_102_2761
*1250 FILLER_0_102_2767
*1251 FILLER_0_102_2831
*1252 FILLER_0_102_2837
*1253 FILLER_0_102_2901
*1254 FILLER_0_102_2907
*1255 FILLER_0_102_2971
*1256 FILLER_0_102_2977
*1257 FILLER_0_102_3041
*1258 FILLER_0_102_3047
*1259 FILLER_0_102_311
*1260 FILLER_0_102_3111
*1261 FILLER_0_102_3117
*1262 FILLER_0_102_317
*1263 FILLER_0_102_3181
*1264 FILLER_0_102_3187
*1265 FILLER_0_102_3251
*1266 FILLER_0_102_3257
*1267 FILLER_0_102_3321
*1268 FILLER_0_102_3327
*1269 FILLER_0_102_3391
*1270 FILLER_0_102_3397
*1271 FILLER_0_102_34
*1272 FILLER_0_102_3461
*1273 FILLER_0_102_3467
*1274 FILLER_0_102_3531
*1275 FILLER_0_102_3537
*1276 FILLER_0_102_3601
*1277 FILLER_0_102_3607
*1278 FILLER_0_102_3671
*1279 FILLER_0_102_3677
*1280 FILLER_0_102_37
*1281 FILLER_0_102_3741
*1282 FILLER_0_102_3747
*1283 FILLER_0_102_381
*1284 FILLER_0_102_3811
*1285 FILLER_0_102_3817
*1286 FILLER_0_102_387
*1287 FILLER_0_102_3881
*1288 FILLER_0_102_3887
*1289 FILLER_0_102_3951
*1290 FILLER_0_102_3957
*1291 FILLER_0_102_4021
*1292 FILLER_0_102_4027
*1293 FILLER_0_102_4091
*1294 FILLER_0_102_4097
*1295 FILLER_0_102_4161
*1296 FILLER_0_102_4167
*1297 FILLER_0_102_4231
*1298 FILLER_0_102_4237
*1299 FILLER_0_102_4301
*1300 FILLER_0_102_4307
*1301 FILLER_0_102_4371
*1302 FILLER_0_102_4377
*1303 FILLER_0_102_4441
*1304 FILLER_0_102_4447
*1305 FILLER_0_102_451
*1306 FILLER_0_102_4511
*1307 FILLER_0_102_4517
*1308 FILLER_0_102_457
*1309 FILLER_0_102_4581
*1310 FILLER_0_102_4587
*1311 FILLER_0_102_4651
*1312 FILLER_0_102_4657
*1313 FILLER_0_102_4721
*1314 FILLER_0_102_4727
*1315 FILLER_0_102_4791
*1316 FILLER_0_102_4797
*1317 FILLER_0_102_4861
*1318 FILLER_0_102_4867
*1319 FILLER_0_102_4931
*1320 FILLER_0_102_4937
*1321 FILLER_0_102_4969
*1322 FILLER_0_102_4973
*1323 FILLER_0_102_521
*1324 FILLER_0_102_527
*1325 FILLER_0_102_591
*1326 FILLER_0_102_597
*1327 FILLER_0_102_661
*1328 FILLER_0_102_667
*1329 FILLER_0_102_731
*1330 FILLER_0_102_737
*1331 FILLER_0_102_801
*1332 FILLER_0_102_807
*1333 FILLER_0_102_871
*1334 FILLER_0_102_877
*1335 FILLER_0_102_941
*1336 FILLER_0_102_947
*1337 FILLER_0_103_1046
*1338 FILLER_0_103_1052
*1339 FILLER_0_103_1116
*1340 FILLER_0_103_1122
*1341 FILLER_0_103_1186
*1342 FILLER_0_103_1192
*1343 FILLER_0_103_1256
*1344 FILLER_0_103_1262
*1345 FILLER_0_103_1326
*1346 FILLER_0_103_1332
*1347 FILLER_0_103_136
*1348 FILLER_0_103_1396
*1349 FILLER_0_103_1402
*1350 FILLER_0_103_142
*1351 FILLER_0_103_1466
*1352 FILLER_0_103_1472
*1353 FILLER_0_103_1536
*1354 FILLER_0_103_1542
*1355 FILLER_0_103_1606
*1356 FILLER_0_103_1612
*1357 FILLER_0_103_1676
*1358 FILLER_0_103_1682
*1359 FILLER_0_103_1746
*1360 FILLER_0_103_1752
*1361 FILLER_0_103_1816
*1362 FILLER_0_103_1822
*1363 FILLER_0_103_1886
*1364 FILLER_0_103_1892
*1365 FILLER_0_103_1956
*1366 FILLER_0_103_1962
*1367 FILLER_0_103_2
*1368 FILLER_0_103_2026
*1369 FILLER_0_103_2032
*1370 FILLER_0_103_206
*1371 FILLER_0_103_2096
*1372 FILLER_0_103_2102
*1373 FILLER_0_103_212
*1374 FILLER_0_103_2166
*1375 FILLER_0_103_2172
*1376 FILLER_0_103_2236
*1377 FILLER_0_103_2242
*1378 FILLER_0_103_2306
*1379 FILLER_0_103_2312
*1380 FILLER_0_103_2376
*1381 FILLER_0_103_2382
*1382 FILLER_0_103_2446
*1383 FILLER_0_103_2452
*1384 FILLER_0_103_2516
*1385 FILLER_0_103_2522
*1386 FILLER_0_103_2586
*1387 FILLER_0_103_2592
*1388 FILLER_0_103_2656
*1389 FILLER_0_103_2662
*1390 FILLER_0_103_2726
*1391 FILLER_0_103_2732
*1392 FILLER_0_103_276
*1393 FILLER_0_103_2796
*1394 FILLER_0_103_2802
*1395 FILLER_0_103_282
*1396 FILLER_0_103_2866
*1397 FILLER_0_103_2872
*1398 FILLER_0_103_2936
*1399 FILLER_0_103_2942
*1400 FILLER_0_103_3006
*1401 FILLER_0_103_3012
*1402 FILLER_0_103_3076
*1403 FILLER_0_103_3082
*1404 FILLER_0_103_3146
*1405 FILLER_0_103_3152
*1406 FILLER_0_103_3216
*1407 FILLER_0_103_3222
*1408 FILLER_0_103_3286
*1409 FILLER_0_103_3292
*1410 FILLER_0_103_3356
*1411 FILLER_0_103_3362
*1412 FILLER_0_103_3426
*1413 FILLER_0_103_3432
*1414 FILLER_0_103_346
*1415 FILLER_0_103_3496
*1416 FILLER_0_103_3502
*1417 FILLER_0_103_352
*1418 FILLER_0_103_3566
*1419 FILLER_0_103_3572
*1420 FILLER_0_103_3636
*1421 FILLER_0_103_3642
*1422 FILLER_0_103_3706
*1423 FILLER_0_103_3712
*1424 FILLER_0_103_3776
*1425 FILLER_0_103_3782
*1426 FILLER_0_103_3846
*1427 FILLER_0_103_3852
*1428 FILLER_0_103_3916
*1429 FILLER_0_103_3922
*1430 FILLER_0_103_3986
*1431 FILLER_0_103_3992
*1432 FILLER_0_103_4056
*1433 FILLER_0_103_4062
*1434 FILLER_0_103_4126
*1435 FILLER_0_103_4132
*1436 FILLER_0_103_416
*1437 FILLER_0_103_4196
*1438 FILLER_0_103_4202
*1439 FILLER_0_103_422
*1440 FILLER_0_103_4266
*1441 FILLER_0_103_4272
*1442 FILLER_0_103_4336
*1443 FILLER_0_103_4342
*1444 FILLER_0_103_4406
*1445 FILLER_0_103_4412
*1446 FILLER_0_103_4476
*1447 FILLER_0_103_4482
*1448 FILLER_0_103_4546
*1449 FILLER_0_103_4552
*1450 FILLER_0_103_4616