*SPEF "ieee 1481-1999"
*DESIGN "tjrpu"
*DATE "11:11:11 Fri 11 11, 1111"
*VENDOR "OpenRCX"
*PROGRAM "Parallel Extraction"
*VERSION "1.0"
*DESIGN_FLOW "NAME_SCOPE LOCAL" "PIN_CAP NONE"
*DIVIDER /
*DELIMITER :
*BUS_DELIMITER []
*T_UNIT 1 NS
*C_UNIT 1 PF
*R_UNIT 1 OHM
*L_UNIT 1 HENRY

*NAME_MAP
*1 gpu_clk
*2 io_in[0]
*3 io_in[10]
*4 io_in[11]
*5 io_in[12]
*6 io_in[13]
*7 io_in[14]
*8 io_in[15]
*9 io_in[1]
*10 io_in[2]
*11 io_in[3]
*12 io_in[4]
*13 io_in[5]
*14 io_in[6]
*15 io_in[7]
*16 io_in[8]
*17 io_in[9]
*18 net140
*19 net150
*20 net151
*21 net152
*22 net153
*23 net154
*24 net155
*25 net141
*26 net142
*27 net143
*28 net144
*29 net145
*30 net146
*31 net147
*32 net148
*33 net149
*34 net156
*35 net166
*36 net167
*37 net168
*38 net169
*39 net170
*40 net171
*41 net157
*42 net158
*43 net159
*44 net160
*45 net161
*46 net162
*47 net163
*48 net164
*49 net165
*50 net172
*51 net173
*52 net174
*53 la_data_in[0]
*54 la_data_in[10]
*55 la_data_in[11]
*56 la_data_in[12]
*57 la_data_in[13]
*58 la_data_in[14]
*59 la_data_in[15]
*60 la_data_in[16]
*61 la_data_in[17]
*62 la_data_in[18]
*63 la_data_in[19]
*64 la_data_in[1]
*65 la_data_in[20]
*66 la_data_in[21]
*67 la_data_in[22]
*68 la_data_in[23]
*69 la_data_in[24]
*70 la_data_in[25]
*71 la_data_in[26]
*72 la_data_in[27]
*73 la_data_in[28]
*74 la_data_in[29]
*75 la_data_in[2]
*76 la_data_in[30]
*77 la_data_in[31]
*78 la_data_in[32]
*79 la_data_in[33]
*80 la_data_in[34]
*81 la_data_in[35]
*82 la_data_in[36]
*83 la_data_in[37]
*84 la_data_in[38]
*85 la_data_in[39]
*86 la_data_in[3]
*87 la_data_in[40]
*88 la_data_in[41]
*89 la_data_in[42]
*90 la_data_in[43]
*91 la_data_in[44]
*92 la_data_in[45]
*93 la_data_in[46]
*94 la_data_in[47]
*95 la_data_in[48]
*96 la_data_in[49]
*97 la_data_in[4]
*98 la_data_in[50]
*99 la_data_in[51]
*100 la_data_in[52]
*101 la_data_in[53]
*102 la_data_in[54]
*103 la_data_in[55]
*104 la_data_in[56]
*105 la_data_in[57]
*106 la_data_in[58]
*107 la_data_in[59]
*108 la_data_in[5]
*109 la_data_in[60]
*110 la_data_in[61]
*111 la_data_in[62]
*112 la_data_in[63]
*113 la_data_in[6]
*114 la_data_in[7]
*115 la_data_in[8]
*116 la_data_in[9]
*117 net175
*118 net185
*119 net186
*120 net187
*121 net188
*122 net189
*123 net190
*124 net191
*125 net192
*126 net193
*127 net194
*128 net176
*129 net195
*130 net196
*131 net197
*132 net198
*133 net199
*134 net200
*135 net201
*136 net202
*137 net203
*138 net204
*139 net177
*140 net205
*141 net206
*142 net207
*143 net208
*144 net209
*145 net210
*146 net211
*147 net212
*148 net213
*149 net214
*150 net178
*151 net215
*152 net216
*153 net217
*154 net218
*155 net219
*156 net220
*157 net221
*158 net222
*159 net223
*160 net224
*161 net179
*162 net225
*163 net226
*164 net227
*165 net228
*166 net229
*167 net230
*168 net231
*169 net232
*170 net233
*171 net234
*172 net180
*173 net235
*174 net236
*175 net237
*176 net238
*177 net181
*178 net182
*179 net183
*180 net184
*181 la_oenb[0]
*182 la_oenb[10]
*183 la_oenb[11]
*184 la_oenb[12]
*185 la_oenb[13]
*186 la_oenb[14]
*187 la_oenb[15]
*188 la_oenb[16]
*189 la_oenb[17]
*190 la_oenb[18]
*191 la_oenb[19]
*192 la_oenb[1]
*193 la_oenb[20]
*194 la_oenb[21]
*195 la_oenb[22]
*196 la_oenb[23]
*197 la_oenb[24]
*198 la_oenb[25]
*199 la_oenb[26]
*200 la_oenb[27]
*201 la_oenb[28]
*202 la_oenb[29]
*203 la_oenb[2]
*204 la_oenb[30]
*205 la_oenb[31]
*206 la_oenb[32]
*207 la_oenb[33]
*208 la_oenb[34]
*209 la_oenb[35]
*210 la_oenb[36]
*211 la_oenb[37]
*212 la_oenb[38]
*213 la_oenb[39]
*214 la_oenb[3]
*215 la_oenb[40]
*216 la_oenb[41]
*217 la_oenb[42]
*218 la_oenb[43]
*219 la_oenb[44]
*220 la_oenb[45]
*221 la_oenb[46]
*222 la_oenb[47]
*223 la_oenb[48]
*224 la_oenb[49]
*225 la_oenb[4]
*226 la_oenb[50]
*227 la_oenb[51]
*228 la_oenb[52]
*229 la_oenb[53]
*230 la_oenb[54]
*231 la_oenb[55]
*232 la_oenb[56]
*233 la_oenb[57]
*234 la_oenb[58]
*235 la_oenb[59]
*236 la_oenb[5]
*237 la_oenb[60]
*238 la_oenb[61]
*239 la_oenb[62]
*240 la_oenb[63]
*241 la_oenb[6]
*242 la_oenb[7]
*243 la_oenb[8]
*244 la_oenb[9]
*245 tri_wbs_ack_o[0]
*246 tri_wbs_ack_o[10]
*247 tri_wbs_ack_o[11]
*248 tri_wbs_ack_o[12]
*249 tri_wbs_ack_o[13]
*250 tri_wbs_ack_o[14]
*251 tri_wbs_ack_o[15]
*252 tri_wbs_ack_o[16]
*253 tri_wbs_ack_o[17]
*254 tri_wbs_ack_o[18]
*255 tri_wbs_ack_o[19]
*256 tri_wbs_ack_o[1]
*257 tri_wbs_ack_o[20]
*258 tri_wbs_ack_o[21]
*259 tri_wbs_ack_o[22]
*260 tri_wbs_ack_o[23]
*261 tri_wbs_ack_o[24]
*262 tri_wbs_ack_o[25]
*263 tri_wbs_ack_o[26]
*264 tri_wbs_ack_o[27]
*265 tri_wbs_ack_o[28]
*266 tri_wbs_ack_o[29]
*267 tri_wbs_ack_o[2]
*268 tri_wbs_ack_o[30]
*269 tri_wbs_ack_o[31]
*270 tri_wbs_ack_o[32]
*271 tri_wbs_ack_o[33]
*272 tri_wbs_ack_o[34]
*273 tri_wbs_ack_o[35]
*274 tri_wbs_ack_o[36]
*275 tri_wbs_ack_o[37]
*276 tri_wbs_ack_o[38]
*277 tri_wbs_ack_o[39]
*278 tri_wbs_ack_o[3]
*279 tri_wbs_ack_o[40]
*280 tri_wbs_ack_o[41]
*281 tri_wbs_ack_o[42]
*282 tri_wbs_ack_o[43]
*283 tri_wbs_ack_o[44]
*284 tri_wbs_ack_o[45]
*285 tri_wbs_ack_o[46]
*286 tri_wbs_ack_o[47]
*287 tri_wbs_ack_o[48]
*288 tri_wbs_ack_o[49]
*289 tri_wbs_ack_o[4]
*290 tri_wbs_ack_o[50]
*291 tri_wbs_ack_o[51]
*292 tri_wbs_ack_o[52]
*293 tri_wbs_ack_o[53]
*294 tri_wbs_ack_o[54]
*295 tri_wbs_ack_o[55]
*296 tri_wbs_ack_o[56]
*297 tri_wbs_ack_o[57]
*298 tri_wbs_ack_o[58]
*299 tri_wbs_ack_o[59]
*300 tri_wbs_ack_o[5]
*301 tri_wbs_ack_o[60]
*302 tri_wbs_ack_o[61]
*303 tri_wbs_ack_o[62]
*304 tri_wbs_ack_o[63]
*305 tri_wbs_ack_o[6]
*306 tri_wbs_ack_o[7]
*307 tri_wbs_ack_o[8]
*308 tri_wbs_ack_o[9]
*309 tri_wbs_stb_i[0]
*310 tri_wbs_stb_i[10]
*311 tri_wbs_stb_i[11]
*312 tri_wbs_stb_i[12]
*313 tri_wbs_stb_i[13]
*314 tri_wbs_stb_i[14]
*315 tri_wbs_stb_i[15]
*316 tri_wbs_stb_i[16]
*317 tri_wbs_stb_i[17]
*318 tri_wbs_stb_i[18]
*319 tri_wbs_stb_i[19]
*320 tri_wbs_stb_i[1]
*321 tri_wbs_stb_i[20]
*322 tri_wbs_stb_i[21]
*323 tri_wbs_stb_i[22]
*324 tri_wbs_stb_i[23]
*325 tri_wbs_stb_i[24]
*326 tri_wbs_stb_i[25]
*327 tri_wbs_stb_i[26]
*328 tri_wbs_stb_i[27]
*329 tri_wbs_stb_i[28]
*330 tri_wbs_stb_i[29]
*331 tri_wbs_stb_i[2]
*332 tri_wbs_stb_i[30]
*333 tri_wbs_stb_i[31]
*334 tri_wbs_stb_i[32]
*335 tri_wbs_stb_i[33]
*336 tri_wbs_stb_i[34]
*337 tri_wbs_stb_i[35]
*338 tri_wbs_stb_i[36]
*339 tri_wbs_stb_i[37]
*340 tri_wbs_stb_i[38]
*341 tri_wbs_stb_i[39]
*342 tri_wbs_stb_i[3]
*343 tri_wbs_stb_i[40]
*344 tri_wbs_stb_i[41]
*345 tri_wbs_stb_i[42]
*346 tri_wbs_stb_i[43]
*347 tri_wbs_stb_i[44]
*348 tri_wbs_stb_i[45]
*349 tri_wbs_stb_i[46]
*350 tri_wbs_stb_i[47]
*351 tri_wbs_stb_i[48]
*352 tri_wbs_stb_i[49]
*353 tri_wbs_stb_i[4]
*354 tri_wbs_stb_i[50]
*355 tri_wbs_stb_i[51]
*356 tri_wbs_stb_i[52]
*357 tri_wbs_stb_i[53]
*358 tri_wbs_stb_i[54]
*359 tri_wbs_stb_i[55]
*360 tri_wbs_stb_i[56]
*361 tri_wbs_stb_i[57]
*362 tri_wbs_stb_i[58]
*363 tri_wbs_stb_i[59]
*364 tri_wbs_stb_i[5]
*365 tri_wbs_stb_i[60]
*366 tri_wbs_stb_i[61]
*367 tri_wbs_stb_i[62]
*368 tri_wbs_stb_i[63]
*369 tri_wbs_stb_i[6]
*370 tri_wbs_stb_i[7]
*371 tri_wbs_stb_i[8]
*372 tri_wbs_stb_i[9]
*375 wb_clk_i
*376 wb_rst_i
*377 wbs_ack_o
*378 wbs_adr_i[0]
*379 wbs_adr_i[10]
*380 wbs_adr_i[11]
*381 wbs_adr_i[12]
*382 wbs_adr_i[13]
*383 wbs_adr_i[14]
*384 wbs_adr_i[15]
*385 wbs_adr_i[16]
*386 wbs_adr_i[17]
*387 wbs_adr_i[18]
*388 wbs_adr_i[19]
*389 wbs_adr_i[1]
*390 wbs_adr_i[20]
*391 wbs_adr_i[21]
*392 wbs_adr_i[22]
*393 wbs_adr_i[23]
*394 wbs_adr_i[24]
*395 wbs_adr_i[25]
*396 wbs_adr_i[26]
*397 wbs_adr_i[27]
*398 wbs_adr_i[28]
*399 wbs_adr_i[29]
*400 wbs_adr_i[2]
*401 wbs_adr_i[30]
*402 wbs_adr_i[31]
*403 wbs_adr_i[3]
*404 wbs_adr_i[4]
*405 wbs_adr_i[5]
*406 wbs_adr_i[6]
*407 wbs_adr_i[7]
*408 wbs_adr_i[8]
*409 wbs_adr_i[9]
*410 wbs_cyc_i
*411 wbs_dat_i[0]
*412 wbs_dat_i[10]
*413 wbs_dat_i[11]
*414 wbs_dat_i[12]
*415 wbs_dat_i[13]
*416 wbs_dat_i[14]
*417 wbs_dat_i[15]
*418 wbs_dat_i[16]
*419 wbs_dat_i[17]
*420 wbs_dat_i[18]
*421 wbs_dat_i[19]
*422 wbs_dat_i[1]
*423 wbs_dat_i[20]
*424 wbs_dat_i[21]
*425 wbs_dat_i[22]
*426 wbs_dat_i[23]
*427 wbs_dat_i[24]
*428 wbs_dat_i[25]
*429 wbs_dat_i[26]
*430 wbs_dat_i[27]
*431 wbs_dat_i[28]
*432 wbs_dat_i[29]
*433 wbs_dat_i[2]
*434 wbs_dat_i[30]
*435 wbs_dat_i[31]
*436 wbs_dat_i[3]
*437 wbs_dat_i[4]
*438 wbs_dat_i[5]
*439 wbs_dat_i[6]
*440 wbs_dat_i[7]
*441 wbs_dat_i[8]
*442 wbs_dat_i[9]
*443 net239
*444 net249
*445 net250
*446 net251
*447 net252
*448 net253
*449 net254
*450 net255
*451 net256
*452 net257
*453 net258
*454 net240
*455 net259
*456 net260
*457 net261
*458 net262
*459 net263
*460 net264
*461 net265
*462 net266
*463 net267
*464 net268
*465 net241
*466 net269
*467 net270
*468 net242
*469 net243
*470 net244
*471 net245
*472 net246
*473 net247
*474 net248
*475 wbs_sel_i[0]
*476 wbs_sel_i[1]
*477 wbs_sel_i[2]
*478 wbs_sel_i[3]
*479 wbs_stb_i
*480 wbs_we_i
*481 x_end[0]
*482 x_end[100]
*483 x_end[101]
*484 x_end[102]
*485 x_end[103]
*486 x_end[104]
*487 x_end[105]
*488 x_end[106]
*489 x_end[107]
*490 x_end[108]
*491 x_end[109]
*492 x_end[10]
*493 x_end[110]
*494 x_end[111]
*495 x_end[112]
*496 x_end[113]
*497 x_end[114]
*498 x_end[115]
*499 x_end[116]
*500 x_end[117]
*501 x_end[118]
*502 x_end[119]
*503 x_end[11]
*504 x_end[120]
*505 x_end[121]
*506 x_end[122]
*507 x_end[123]
*508 x_end[124]
*509 x_end[125]
*510 x_end[126]
*511 x_end[127]
*512 x_end[128]
*513 x_end[129]
*514 x_end[12]
*515 x_end[130]
*516 x_end[131]
*517 x_end[132]
*518 x_end[133]
*519 x_end[134]
*520 x_end[135]
*521 x_end[136]
*522 x_end[137]
*523 x_end[138]
*524 x_end[139]
*525 x_end[13]
*526 x_end[140]
*527 x_end[141]
*528 x_end[142]
*529 x_end[143]
*530 x_end[144]
*531 x_end[145]
*532 x_end[146]
*533 x_end[147]
*534 x_end[148]
*535 x_end[149]
*536 x_end[14]
*537 x_end[150]
*538 x_end[151]
*539 x_end[152]
*540 x_end[153]
*541 x_end[154]
*542 x_end[155]
*543 x_end[156]
*544 x_end[157]
*545 x_end[158]
*546 x_end[159]
*547 x_end[15]
*548 x_end[160]
*549 x_end[161]
*550 x_end[162]
*551 x_end[163]
*552 x_end[164]
*553 x_end[165]
*554 x_end[166]
*555 x_end[167]
*556 x_end[168]
*557 x_end[169]
*558 x_end[16]
*559 x_end[170]
*560 x_end[171]
*561 x_end[172]
*562 x_end[173]
*563 x_end[174]
*564 x_end[175]
*565 x_end[176]
*566 x_end[177]
*567 x_end[178]
*568 x_end[179]
*569 x_end[17]
*570 x_end[180]
*571 x_end[181]
*572 x_end[182]
*573 x_end[183]
*574 x_end[184]
*575 x_end[185]
*576 x_end[186]
*577 x_end[187]
*578 x_end[188]
*579 x_end[189]
*580 x_end[18]
*581 x_end[190]
*582 x_end[191]
*583 x_end[192]
*584 x_end[193]
*585 x_end[194]
*586 x_end[195]
*587 x_end[196]
*588 x_end[197]
*589 x_end[198]
*590 x_end[199]
*591 x_end[19]
*592 x_end[1]
*593 x_end[200]
*594 x_end[201]
*595 x_end[202]
*596 x_end[203]
*597 x_end[204]
*598 x_end[205]
*599 x_end[206]
*600 x_end[207]
*601 x_end[208]
*602 x_end[209]
*603 x_end[20]
*604 x_end[210]
*605 x_end[211]
*606 x_end[212]
*607 x_end[213]
*608 x_end[214]
*609 x_end[215]
*610 x_end[216]
*611 x_end[217]
*612 x_end[218]
*613 x_end[219]
*614 x_end[21]
*615 x_end[220]
*616 x_end[221]
*617 x_end[222]
*618 x_end[223]
*619 x_end[224]
*620 x_end[225]
*621 x_end[226]
*622 x_end[227]
*623 x_end[228]
*624 x_end[229]
*625 x_end[22]
*626 x_end[230]
*627 x_end[231]
*628 x_end[232]
*629 x_end[233]
*630 x_end[234]
*631 x_end[235]
*632 x_end[236]
*633 x_end[237]
*634 x_end[238]
*635 x_end[239]
*636 x_end[23]
*637 x_end[240]
*638 x_end[241]
*639 x_end[242]
*640 x_end[243]
*641 x_end[244]
*642 x_end[245]
*643 x_end[246]
*644 x_end[247]
*645 x_end[248]
*646 x_end[249]
*647 x_end[24]
*648 x_end[250]
*649 x_end[251]
*650 x_end[252]
*651 x_end[253]
*652 x_end[254]
*653 x_end[255]
*654 x_end[256]
*655 x_end[257]
*656 x_end[258]
*657 x_end[259]
*658 x_end[25]
*659 x_end[260]
*660 x_end[261]
*661 x_end[262]
*662 x_end[263]
*663 x_end[264]
*664 x_end[265]
*665 x_end[266]
*666 x_end[267]
*667 x_end[268]
*668 x_end[269]
*669 x_end[26]
*670 x_end[270]
*671 x_end[271]
*672 x_end[272]
*673 x_end[273]
*674 x_end[274]
*675 x_end[275]
*676 x_end[276]
*677 x_end[277]
*678 x_end[278]
*679 x_end[279]
*680 x_end[27]
*681 x_end[280]
*682 x_end[281]
*683 x_end[282]
*684 x_end[283]
*685 x_end[284]
*686 x_end[285]
*687 x_end[286]
*688 x_end[287]
*689 x_end[288]
*690 x_end[289]
*691 x_end[28]
*692 x_end[290]
*693 x_end[291]
*694 x_end[292]
*695 x_end[293]
*696 x_end[294]
*697 x_end[295]
*698 x_end[296]
*699 x_end[297]
*700 x_end[298]
*701 x_end[299]
*702 x_end[29]
*703 x_end[2]
*704 x_end[300]
*705 x_end[301]
*706 x_end[302]
*707 x_end[303]
*708 x_end[304]
*709 x_end[305]
*710 x_end[306]
*711 x_end[307]
*712 x_end[308]
*713 x_end[309]
*714 x_end[30]
*715 x_end[310]
*716 x_end[311]
*717 x_end[312]
*718 x_end[313]
*719 x_end[314]
*720 x_end[315]
*721 x_end[316]
*722 x_end[317]
*723 x_end[318]
*724 x_end[319]
*725 x_end[31]
*726 x_end[320]
*727 x_end[321]
*728 x_end[322]
*729 x_end[323]
*730 x_end[324]
*731 x_end[325]
*732 x_end[326]
*733 x_end[327]
*734 x_end[328]
*735 x_end[329]
*736 x_end[32]
*737 x_end[330]
*738 x_end[331]
*739 x_end[332]
*740 x_end[333]
*741 x_end[334]
*742 x_end[335]
*743 x_end[336]
*744 x_end[337]
*745 x_end[338]
*746 x_end[339]
*747 x_end[33]
*748 x_end[340]
*749 x_end[341]
*750 x_end[342]
*751 x_end[343]
*752 x_end[344]
*753 x_end[345]
*754 x_end[346]
*755 x_end[347]
*756 x_end[348]
*757 x_end[349]
*758 x_end[34]
*759 x_end[350]
*760 x_end[351]
*761 x_end[352]
*762 x_end[353]
*763 x_end[354]
*764 x_end[355]
*765 x_end[356]
*766 x_end[357]
*767 x_end[358]
*768 x_end[359]
*769 x_end[35]
*770 x_end[360]
*771 x_end[361]
*772 x_end[362]
*773 x_end[363]
*774 x_end[364]
*775 x_end[365]
*776 x_end[366]
*777 x_end[367]
*778 x_end[368]
*779 x_end[369]
*780 x_end[36]
*781 x_end[370]
*782 x_end[371]
*783 x_end[372]
*784 x_end[373]
*785 x_end[374]
*786 x_end[375]
*787 x_end[376]
*788 x_end[377]
*789 x_end[378]
*790 x_end[379]
*791 x_end[37]
*792 x_end[380]
*793 x_end[381]
*794 x_end[382]
*795 x_end[383]
*796 x_end[384]
*797 x_end[385]
*798 x_end[386]
*799 x_end[387]
*800 x_end[388]
*801 x_end[389]
*802 x_end[38]
*803 x_end[390]
*804 x_end[391]
*805 x_end[392]
*806 x_end[393]
*807 x_end[394]
*808 x_end[395]
*809 x_end[396]
*810 x_end[397]
*811 x_end[398]
*812 x_end[399]
*813 x_end[39]
*814 x_end[3]
*815 x_end[400]
*816 x_end[401]
*817 x_end[402]
*818 x_end[403]
*819 x_end[404]
*820 x_end[405]
*821 x_end[406]
*822 x_end[407]
*823 x_end[408]
*824 x_end[409]
*825 x_end[40]
*826 x_end[410]
*827 x_end[411]
*828 x_end[412]
*829 x_end[413]
*830 x_end[414]
*831 x_end[415]
*832 x_end[416]
*833 x_end[417]
*834 x_end[418]
*835 x_end[419]
*836 x_end[41]
*837 x_end[420]
*838 x_end[421]
*839 x_end[422]
*840 x_end[423]
*841 x_end[424]
*842 x_end[425]
*843 x_end[426]
*844 x_end[427]
*845 x_end[428]
*846 x_end[429]
*847 x_end[42]
*848 x_end[430]
*849 x_end[431]
*850 x_end[432]
*851 x_end[433]
*852 x_end[434]
*853 x_end[435]
*854 x_end[436]
*855 x_end[437]
*856 x_end[438]
*857 x_end[439]
*858 x_end[43]
*859 x_end[440]
*860 x_end[441]
*861 x_end[442]
*862 x_end[443]
*863 x_end[444]
*864 x_end[445]
*865 x_end[446]
*866 x_end[447]
*867 x_end[448]
*868 x_end[449]
*869 x_end[44]
*870 x_end[450]
*871 x_end[451]
*872 x_end[452]
*873 x_end[453]
*874 x_end[454]
*875 x_end[455]
*876 x_end[456]
*877 x_end[457]
*878 x_end[458]
*879 x_end[459]
*880 x_end[45]
*881 x_end[460]
*882 x_end[461]
*883 x_end[462]
*884 x_end[463]
*885 x_end[464]
*886 x_end[465]
*887 x_end[466]
*888 x_end[467]
*889 x_end[468]
*890 x_end[469]
*891 x_end[46]
*892 x_end[470]
*893 x_end[471]
*894 x_end[472]
*895 x_end[473]
*896 x_end[474]
*897 x_end[475]
*898 x_end[476]
*899 x_end[477]
*900 x_end[478]
*901 x_end[479]
*902 x_end[47]
*903 x_end[480]
*904 x_end[481]
*905 x_end[482]
*906 x_end[483]
*907 x_end[484]
*908 x_end[485]
*909 x_end[486]
*910 x_end[487]
*911 x_end[488]
*912 x_end[489]
*913 x_end[48]
*914 x_end[490]
*915 x_end[491]
*916 x_end[492]
*917 x_end[493]
*918 x_end[494]
*919 x_end[495]
*920 x_end[496]
*921 x_end[497]
*922 x_end[498]
*923 x_end[499]
*924 x_end[49]
*925 x_end[4]
*926 x_end[500]
*927 x_end[501]
*928 x_end[502]
*929 x_end[503]
*930 x_end[504]
*931 x_end[505]
*932 x_end[506]
*933 x_end[507]
*934 x_end[508]
*935 x_end[509]
*936 x_end[50]
*937 x_end[510]
*938 x_end[511]
*939 x_end[51]
*940 x_end[52]
*941 x_end[53]
*942 x_end[54]
*943 x_end[55]
*944 x_end[56]
*945 x_end[57]
*946 x_end[58]
*947 x_end[59]
*948 x_end[5]
*949 x_end[60]
*950 x_end[61]
*951 x_end[62]
*952 x_end[63]
*953 x_end[64]
*954 x_end[65]
*955 x_end[66]
*956 x_end[67]
*957 x_end[68]
*958 x_end[69]
*959 x_end[6]
*960 x_end[70]
*961 x_end[71]
*962 x_end[72]
*963 x_end[73]
*964 x_end[74]
*965 x_end[75]
*966 x_end[76]
*967 x_end[77]
*968 x_end[78]
*969 x_end[79]
*970 x_end[7]
*971 x_end[80]
*972 x_end[81]
*973 x_end[82]
*974 x_end[83]
*975 x_end[84]
*976 x_end[85]
*977 x_end[86]
*978 x_end[87]
*979 x_end[88]
*980 x_end[89]
*981 x_end[8]
*982 x_end[90]
*983 x_end[91]
*984 x_end[92]
*985 x_end[93]
*986 x_end[94]
*987 x_end[95]
*988 x_end[96]
*989 x_end[97]
*990 x_end[98]
*991 x_end[99]
*992 x_end[9]
*993 x_start[0]
*994 x_start[100]
*995 x_start[101]
*996 x_start[102]
*997 x_start[103]
*998 x_start[104]
*999 x_start[105]
*1000 x_start[106]
*1001 x_start[107]
*1002 x_start[108]
*1003 x_start[109]
*1004 x_start[10]
*1005 x_start[110]
*1006 x_start[111]
*1007 x_start[112]
*1008 x_start[113]
*1009 x_start[114]
*1010 x_start[115]
*1011 x_start[116]
*1012 x_start[117]
*1013 x_start[118]
*1014 x_start[119]
*1015 x_start[11]
*1016 x_start[120]
*1017 x_start[121]
*1018 x_start[122]
*1019 x_start[123]
*1020 x_start[124]
*1021 x_start[125]
*1022 x_start[126]
*1023 x_start[127]
*1024 x_start[128]
*1025 x_start[129]
*1026 x_start[12]
*1027 x_start[130]
*1028 x_start[131]
*1029 x_start[132]
*1030 x_start[133]
*1031 x_start[134]
*1032 x_start[135]
*1033 x_start[136]
*1034 x_start[137]
*1035 x_start[138]
*1036 x_start[139]
*1037 x_start[13]
*1038 x_start[140]
*1039 x_start[141]
*1040 x_start[142]
*1041 x_start[143]
*1042 x_start[144]
*1043 x_start[145]
*1044 x_start[146]
*1045 x_start[147]
*1046 x_start[148]
*1047 x_start[149]
*1048 x_start[14]
*1049 x_start[150]
*1050 x_start[151]
*1051 x_start[152]
*1052 x_start[153]
*1053 x_start[154]
*1054 x_start[155]
*1055 x_start[156]
*1056 x_start[157]
*1057 x_start[158]
*1058 x_start[159]
*1059 x_start[15]
*1060 x_start[160]
*1061 x_start[161]
*1062 x_start[162]
*1063 x_start[163]
*1064 x_start[164]
*1065 x_start[165]
*1066 x_start[166]
*1067 x_start[167]
*1068 x_start[168]
*1069 x_start[169]
*1070 x_start[16]
*1071 x_start[170]
*1072 x_start[171]
*1073 x_start[172]
*1074 x_start[173]
*1075 x_start[174]
*1076 x_start[175]
*1077 x_start[176]
*1078 x_start[177]
*1079 x_start[178]
*1080 x_start[179]
*1081 x_start[17]
*1082 x_start[180]
*1083 x_start[181]
*1084 x_start[182]
*1085 x_start[183]
*1086 x_start[184]
*1087 x_start[185]
*1088 x_start[186]
*1089 x_start[187]
*1090 x_start[188]
*1091 x_start[189]
*1092 x_start[18]
*1093 x_start[190]
*1094 x_start[191]
*1095 x_start[192]
*1096 x_start[193]
*1097 x_start[194]
*1098 x_start[195]
*1099 x_start[196]
*1100 x_start[197]
*1101 x_start[198]
*1102 x_start[199]
*1103 x_start[19]
*1104 x_start[1]
*1105 x_start[200]
*1106 x_start[201]
*1107 x_start[202]
*1108 x_start[203]
*1109 x_start[204]
*1110 x_start[205]
*1111 x_start[206]
*1112 x_start[207]
*1113 x_start[208]
*1114 x_start[209]
*1115 x_start[20]
*1116 x_start[210]
*1117 x_start[211]
*1118 x_start[212]
*1119 x_start[213]
*1120 x_start[214]
*1121 x_start[215]
*1122 x_start[216]
*1123 x_start[217]
*1124 x_start[218]
*1125 x_start[219]
*1126 x_start[21]
*1127 x_start[220]
*1128 x_start[221]
*1129 x_start[222]
*1130 x_start[223]
*1131 x_start[224]
*1132 x_start[225]
*1133 x_start[226]
*1134 x_start[227]
*1135 x_start[228]
*1136 x_start[229]
*1137 x_start[22]
*1138 x_start[230]
*1139 x_start[231]
*1140 x_start[232]
*1141 x_start[233]
*1142 x_start[234]
*1143 x_start[235]
*1144 x_start[236]
*1145 x_start[237]
*1146 x_start[238]
*1147 x_start[239]
*1148 x_start[23]
*1149 x_start[240]
*1150 x_start[241]
*1151 x_start[242]
*1152 x_start[243]
*1153 x_start[244]
*1154 x_start[245]
*1155 x_start[246]
*1156 x_start[247]
*1157 x_start[248]
*1158 x_start[249]
*1159 x_start[24]
*1160 x_start[250]
*1161 x_start[251]
*1162 x_start[252]
*1163 x_start[253]
*1164 x_start[254]
*1165 x_start[255]
*1166 x_start[256]
*1167 x_start[257]
*1168 x_start[258]
*1169 x_start[259]
*1170 x_start[25]
*1171 x_start[260]
*1172 x_start[261]
*1173 x_start[262]
*1174 x_start[263]
*1175 x_start[264]
*1176 x_start[265]
*1177 x_start[266]
*1178 x_start[267]
*1179 x_start[268]
*1180 x_start[269]
*1181 x_start[26]
*1182 x_start[270]
*1183 x_start[271]
*1184 x_start[272]
*1185 x_start[273]
*1186 x_start[274]
*1187 x_start[275]
*1188 x_start[276]
*1189 x_start[277]
*1190 x_start[278]
*1191 x_start[279]
*1192 x_start[27]
*1193 x_start[280]
*1194 x_start[281]
*1195 x_start[282]
*1196 x_start[283]
*1197 x_start[284]
*1198 x_start[285]
*1199 x_start[286]
*1200 x_start[287]
*1201 x_start[288]
*1202 x_start[289]
*1203 x_start[28]
*1204 x_start[290]
*1205 x_start[291]
*1206 x_start[292]
*1207 x_start[293]
*1208 x_start[294]
*1209 x_start[295]
*1210 x_start[296]
*1211 x_start[297]
*1212 x_start[298]
*1213 x_start[299]
*1214 x_start[29]
*1215 x_start[2]
*1216 x_start[300]
*1217 x_start[301]
*1218 x_start[302]
*1219 x_start[303]
*1220 x_start[304]
*1221 x_start[305]
*1222 x_start[306]
*1223 x_start[307]
*1224 x_start[308]
*1225 x_start[309]
*1226 x_start[30]
*1227 x_start[310]
*1228 x_start[311]
*1229 x_start[312]
*1230 x_start[313]
*1231 x_start[314]
*1232 x_start[315]
*1233 x_start[316]
*1234 x_start[317]
*1235 x_start[318]
*1236 x_start[319]
*1237 x_start[31]
*1238 x_start[320]
*1239 x_start[321]
*1240 x_start[322]
*1241 x_start[323]
*1242 x_start[324]
*1243 x_start[325]
*1244 x_start[326]
*1245 x_start[327]
*1246 x_start[328]
*1247 x_start[329]
*1248 x_start[32]
*1249 x_start[330]
*1250 x_start[331]
*1251 x_start[332]
*1252 x_start[333]
*1253 x_start[334]
*1254 x_start[335]
*1255 x_start[336]
*1256 x_start[337]
*1257 x_start[338]
*1258 x_start[339]
*1259 x_start[33]
*1260 x_start[340]
*1261 x_start[341]
*1262 x_start[342]
*1263 x_start[343]
*1264 x_start[344]
*1265 x_start[345]
*1266 x_start[346]
*1267 x_start[347]
*1268 x_start[348]
*1269 x_start[349]
*1270 x_start[34]
*1271 x_start[350]
*1272 x_start[351]
*1273 x_start[352]
*1274 x_start[353]
*1275 x_start[354]
*1276 x_start[355]
*1277 x_start[356]
*1278 x_start[357]
*1279 x_start[358]
*1280 x_start[359]
*1281 x_start[35]
*1282 x_start[360]
*1283 x_start[361]
*1284 x_start[362]
*1285 x_start[363]
*1286 x_start[364]
*1287 x_start[365]
*1288 x_start[366]
*1289 x_start[367]
*1290 x_start[368]
*1291 x_start[369]
*1292 x_start[36]
*1293 x_start[370]
*1294 x_start[371]
*1295 x_start[372]
*1296 x_start[373]
*1297 x_start[374]
*1298 x_start[375]
*1299 x_start[376]
*1300 x_start[377]
*1301 x_start[378]
*1302 x_start[379]
*1303 x_start[37]
*1304 x_start[380]
*1305 x_start[381]
*1306 x_start[382]
*1307 x_start[383]
*1308 x_start[384]
*1309 x_start[385]
*1310 x_start[386]
*1311 x_start[387]
*1312 x_start[388]
*1313 x_start[389]
*1314 x_start[38]
*1315 x_start[390]
*1316 x_start[391]
*1317 x_start[392]
*1318 x_start[393]
*1319 x_start[394]
*1320 x_start[395]
*1321 x_start[396]
*1322 x_start[397]
*1323 x_start[398]
*1324 x_start[399]
*1325 x_start[39]
*1326 x_start[3]
*1327 x_start[400]
*1328 x_start[401]
*1329 x_start[402]
*1330 x_start[403]
*1331 x_start[404]
*1332 x_start[405]
*1333 x_start[406]
*1334 x_start[407]
*1335 x_start[408]
*1336 x_start[409]
*1337 x_start[40]
*1338 x_start[410]
*1339 x_start[411]
*1340 x_start[412]
*1341 x_start[413]
*1342 x_start[414]
*1343 x_start[415]
*1344 x_start[416]
*1345 x_start[417]
*1346 x_start[418]
*1347 x_start[419]
*1348 x_start[41]
*1349 x_start[420]
*1350 x_start[421]
*1351 x_start[422]
*1352 x_start[423]
*1353 x_start[424]
*1354 x_start[425]
*1355 x_start[426]
*1356 x_start[427]
*1357 x_start[428]
*1358 x_start[429]
*1359 x_start[42]
*1360 x_start[430]
*1361 x_start[431]
*1362 x_start[432]
*1363 x_start[433]
*1364 x_start[434]
*1365 x_start[435]
*1366 x_start[436]
*1367 x_start[437]
*1368 x_start[438]
*1369 x_start[439]
*1370 x_start[43]
*1371 x_start[440]
*1372 x_start[441]
*1373 x_start[442]
*1374 x_start[443]
*1375 x_start[444]
*1376 x_start[445]
*1377 x_start[446]
*1378 x_start[447]
*1379 x_start[448]
*1380 x_start[449]
*1381 x_start[44]
*1382 x_start[450]
*1383 x_start[451]
*1384 x_start[452]
*1385 x_start[453]
*1386 x_start[454]
*1387 x_start[455]
*1388 x_start[456]
*1389 x_start[457]
*1390 x_start[458]
*1391 x_start[459]
*1392 x_start[45]
*1393 x_start[460]
*1394 x_start[461]
*1395 x_start[462]
*1396 x_start[463]
*1397 x_start[464]
*1398 x_start[465]
*1399 x_start[466]
*1400 x_start[467]
*1401 x_start[468]
*1402 x_start[469]
*1403 x_start[46]
*1404 x_start[470]
*1405 x_start[471]
*1406 x_start[472]
*1407 x_start[473]
*1408 x_start[474]
*1409 x_start[475]
*1410 x_start[476]
*1411 x_start[477]
*1412 x_start[478]
*1413 x_start[479]
*1414 x_start[47]
*1415 x_start[480]
*1416 x_start[481]
*1417 x_start[482]
*1418 x_start[483]
*1419 x_start[484]
*1420 x_start[485]
*1421 x_start[486]
*1422 x_start[487]
*1423 x_start[488]
*1424 x_start[489]
*1425 x_start[48]
*1426 x_start[490]
*1427 x_start[491]
*1428 x_start[492]
*1429 x_start[493]
*1430 x_start[494]
*1431 x_start[495]
*1432 x_start[496]
*1433 x_start[497]
*1434 x_start[498]
*1435 x_start[499]
*1436 x_start[49]
*1437 x_start[4]
*1438 x_start[500]
*1439 x_start[501]
*1440 x_start[502]
*1441 x_start[503]
*1442 x_start[504]
*1443 x_start[505]
*1444 x_start[506]
*1445 x_start[507]
*1446 x_start[508]
*1447 x_start[509]
*1448 x_start[50]
*1449 x_start[510]
*1450 x_start[511]
*1451 x_start[51]
*1452 x_start[52]
*1453 x_start[53]
*1454 x_start[54]
*1455 x_start[55]
*1456 x_start[56]
*1457 x_start[57]
*1458 x_start[58]
*1459 x_start[59]
*1460 x_start[5]
*1461 x_start[60]
*1462 x_start[61]
*1463 x_start[62]
*1464 x_start[63]
*1465 x_start[64]
*1466 x_start[65]
*1467 x_start[66]
*1468 x_start[67]
*1469 x_start[68]
*1470 x_start[69]
*1471 x_start[6]
*1472 x_start[70]
*1473 x_start[71]
*1474 x_start[72]
*1475 x_start[73]
*1476 x_start[74]
*1477 x_start[75]
*1478 x_start[76]
*1479 x_start[77]
*1480 x_start[78]
*1481 x_start[79]
*1482 x_start[7]
*1483 x_start[80]
*1484 x_start[81]
*1485 x_start[82]
*1486 x_start[83]
*1487 x_start[84]
*1488 x_start[85]
*1489 x_start[86]
*1490 x_start[87]
*1491 x_start[88]
*1492 x_start[89]
*1493 x_start[8]
*1494 x_start[90]
*1495 x_start[91]
*1496 x_start[92]
*1497 x_start[93]
*1498 x_start[94]
*1499 x_start[95]
*1500 x_start[96]
*1501 x_start[97]
*1502 x_start[98]
*1503 x_start[99]
*1504 x_start[9]
*1505 y[0]
*1506 y[100]
*1507 y[101]
*1508 y[102]
*1509 y[103]
*1510 y[104]
*1511 y[105]
*1512 y[106]
*1513 y[107]
*1514 y[108]
*1515 y[109]
*1516 y[10]
*1517 y[110]
*1518 y[111]
*1519 y[112]
*1520 y[113]
*1521 y[114]
*1522 y[115]
*1523 y[116]
*1524 y[117]
*1525 y[118]
*1526 y[119]
*1527 y[11]
*1528 y[120]
*1529 y[121]
*1530 y[122]
*1531 y[123]
*1532 y[124]
*1533 y[125]
*1534 y[126]
*1535 y[127]
*1536 y[128]
*1537 y[129]
*1538 y[12]
*1539 y[130]
*1540 y[131]
*1541 y[132]
*1542 y[133]
*1543 y[134]
*1544 y[135]
*1545 y[136]
*1546 y[137]
*1547 y[138]
*1548 y[139]
*1549 y[13]
*1550 y[140]
*1551 y[141]
*1552 y[142]
*1553 y[143]
*1554 y[144]
*1555 y[145]
*1556 y[146]
*1557 y[147]
*1558 y[148]
*1559 y[149]
*1560 y[14]
*1561 y[150]
*1562 y[151]
*1563 y[152]
*1564 y[153]
*1565 y[154]
*1566 y[155]
*1567 y[156]
*1568 y[157]
*1569 y[158]
*1570 y[159]
*1571 y[15]
*1572 y[160]
*1573 y[161]
*1574 y[162]
*1575 y[163]
*1576 y[164]
*1577 y[165]
*1578 y[166]
*1579 y[167]
*1580 y[168]
*1581 y[169]
*1582 y[16]
*1583 y[170]
*1584 y[171]
*1585 y[172]
*1586 y[173]
*1587 y[174]
*1588 y[175]
*1589 y[176]
*1590 y[177]
*1591 y[178]
*1592 y[179]
*1593 y[17]
*1594 y[180]
*1595 y[181]
*1596 y[182]
*1597 y[183]
*1598 y[184]
*1599 y[185]
*1600 y[186]
*1601 y[187]
*1602 y[188]
*1603 y[189]
*1604 y[18]
*1605 y[190]
*1606 y[191]
*1607 y[192]
*1608 y[193]
*1609 y[194]
*1610 y[195]
*1611 y[196]
*1612 y[197]
*1613 y[198]
*1614 y[199]
*1615 y[19]
*1616 y[1]
*1617 y[200]
*1618 y[201]
*1619 y[202]
*1620 y[203]
*1621 y[204]
*1622 y[205]
*1623 y[206]
*1624 y[207]
*1625 y[208]
*1626 y[209]
*1627 y[20]
*1628 y[210]
*1629 y[211]
*1630 y[212]
*1631 y[213]
*1632 y[214]
*1633 y[215]
*1634 y[216]
*1635 y[217]
*1636 y[218]
*1637 y[219]
*1638 y[21]
*1639 y[220]
*1640 y[221]
*1641 y[222]
*1642 y[223]
*1643 y[224]
*1644 y[225]
*1645 y[226]
*1646 y[227]
*1647 y[228]
*1648 y[229]
*1649 y[22]
*1650 y[230]
*1651 y[231]
*1652 y[232]
*1653 y[233]
*1654 y[234]
*1655 y[235]
*1656 y[236]
*1657 y[237]
*1658 y[238]
*1659 y[239]
*1660 y[23]
*1661 y[240]
*1662 y[241]
*1663 y[242]
*1664 y[243]
*1665 y[244]
*1666 y[245]
*1667 y[246]
*1668 y[247]
*1669 y[248]
*1670 y[249]
*1671 y[24]
*1672 y[250]
*1673 y[251]
*1674 y[252]
*1675 y[253]
*1676 y[254]
*1677 y[255]
*1678 y[256]
*1679 y[257]
*1680 y[258]
*1681 y[259]
*1682 y[25]
*1683 y[260]
*1684 y[261]
*1685 y[262]
*1686 y[263]
*1687 y[264]
*1688 y[265]
*1689 y[266]
*1690 y[267]
*1691 y[268]
*1692 y[269]
*1693 y[26]
*1694 y[270]
*1695 y[271]
*1696 y[272]
*1697 y[273]
*1698 y[274]
*1699 y[275]
*1700 y[276]
*1701 y[277]
*1702 y[278]
*1703 y[279]
*1704 y[27]
*1705 y[280]
*1706 y[281]
*1707 y[282]
*1708 y[283]
*1709 y[284]
*1710 y[285]
*1711 y[286]
*1712 y[287]
*1713 y[288]
*1714 y[289]
*1715 y[28]
*1716 y[290]
*1717 y[291]
*1718 y[292]
*1719 y[293]
*1720 y[294]
*1721 y[295]
*1722 y[296]
*1723 y[297]
*1724 y[298]
*1725 y[299]
*1726 y[29]
*1727 y[2]
*1728 y[300]
*1729 y[301]
*1730 y[302]
*1731 y[303]
*1732 y[304]
*1733 y[305]
*1734 y[306]
*1735 y[307]
*1736 y[308]
*1737 y[309]
*1738 y[30]
*1739 y[310]
*1740 y[311]
*1741 y[312]
*1742 y[313]
*1743 y[314]
*1744 y[315]
*1745 y[316]
*1746 y[317]
*1747 y[318]
*1748 y[319]
*1749 y[31]
*1750 y[320]
*1751 y[321]
*1752 y[322]
*1753 y[323]
*1754 y[324]
*1755 y[325]
*1756 y[326]
*1757 y[327]
*1758 y[328]
*1759 y[329]
*1760 y[32]
*1761 y[330]
*1762 y[331]
*1763 y[332]
*1764 y[333]
*1765 y[334]
*1766 y[335]
*1767 y[336]
*1768 y[337]
*1769 y[338]
*1770 y[339]
*1771 y[33]
*1772 y[340]
*1773 y[341]
*1774 y[342]
*1775 y[343]
*1776 y[344]
*1777 y[345]
*1778 y[346]
*1779 y[347]
*1780 y[348]
*1781 y[349]
*1782 y[34]
*1783 y[350]
*1784 y[351]
*1785 y[352]
*1786 y[353]
*1787 y[354]
*1788 y[355]
*1789 y[356]