*SPEF "ieee 1481-1999"
*DESIGN "tjrpu"
*DATE "11:11:11 Fri 11 11, 1111"
*VENDOR "OpenRCX"
*PROGRAM "Parallel Extraction"
*VERSION "1.0"
*DESIGN_FLOW "NAME_SCOPE LOCAL" "PIN_CAP NONE"
*DIVIDER /
*DELIMITER :
*BUS_DELIMITER []
*T_UNIT 1 NS
*C_UNIT 1 PF
*R_UNIT 1 OHM
*L_UNIT 1 HENRY

*NAME_MAP
*1 io_in[0]
*2 io_in[10]
*3 io_in[11]
*4 io_in[12]
*5 io_in[13]
*6 io_in[14]
*7 io_in[15]
*8 io_in[1]
*9 io_in[2]
*10 io_in[3]
*11 io_in[4]
*12 io_in[5]
*13 io_in[6]
*14 io_in[7]
*15 io_in[8]
*16 io_in[9]
*17 net9
*18 net19
*19 net20
*20 net21
*21 net22
*22 net23
*23 net24
*24 net10
*25 net11
*26 net12
*27 net13
*28 net14
*29 net15
*30 net16
*31 net17
*32 net18
*33 net25
*34 net35
*35 net36
*36 net37
*37 net38
*38 net39
*39 net40
*40 net26
*41 net27
*42 net28
*43 net29
*44 net30
*45 net31
*46 net32
*47 net33
*48 net34
*49 net41
*50 net42
*51 net43
*52 la_data_in[0]
*53 la_data_in[10]
*54 la_data_in[11]
*55 la_data_in[12]
*56 la_data_in[13]
*57 la_data_in[14]
*58 la_data_in[15]
*59 la_data_in[16]
*60 la_data_in[17]
*61 la_data_in[18]
*62 la_data_in[19]
*63 la_data_in[1]
*64 la_data_in[20]
*65 la_data_in[21]
*66 la_data_in[22]
*67 la_data_in[23]
*68 la_data_in[24]
*69 la_data_in[25]
*70 la_data_in[26]
*71 la_data_in[27]
*72 la_data_in[28]
*73 la_data_in[29]
*74 la_data_in[2]
*75 la_data_in[30]
*76 la_data_in[31]
*77 la_data_in[32]
*78 la_data_in[33]
*79 la_data_in[34]
*80 la_data_in[35]
*81 la_data_in[36]
*82 la_data_in[37]
*83 la_data_in[38]
*84 la_data_in[39]
*85 la_data_in[3]
*86 la_data_in[40]
*87 la_data_in[41]
*88 la_data_in[42]
*89 la_data_in[43]
*90 la_data_in[44]
*91 la_data_in[45]
*92 la_data_in[46]
*93 la_data_in[47]
*94 la_data_in[48]
*95 la_data_in[49]
*96 la_data_in[4]
*97 la_data_in[50]
*98 la_data_in[51]
*99 la_data_in[52]
*100 la_data_in[53]
*101 la_data_in[54]
*102 la_data_in[55]
*103 la_data_in[56]
*104 la_data_in[57]
*105 la_data_in[58]
*106 la_data_in[59]
*107 la_data_in[5]
*108 la_data_in[60]
*109 la_data_in[61]
*110 la_data_in[62]
*111 la_data_in[63]
*112 la_data_in[6]
*113 la_data_in[7]
*114 la_data_in[8]
*115 la_data_in[9]
*116 net44
*117 net54
*118 net55
*119 net56
*120 net57
*121 net58
*122 net59
*123 net60
*124 net61
*125 net62
*126 net63
*127 net45
*128 net64
*129 net65
*130 net66
*131 net67
*132 net68
*133 net69
*134 net70
*135 net71
*136 net72
*137 net73
*138 net46
*139 net74
*140 net75
*141 net76
*142 net77
*143 net78
*144 net79
*145 net80
*146 net81
*147 net82
*148 net83
*149 net47
*150 net84
*151 net85
*152 net86
*153 net87
*154 net88
*155 net89
*156 net90
*157 net91
*158 net92
*159 net93
*160 net48
*161 net94
*162 net95
*163 net96
*164 net97
*165 net98
*166 net99
*167 net100
*168 net101
*169 net102
*170 net103
*171 net49
*172 net104
*173 net105
*174 net106
*175 net107
*176 net50
*177 net51
*178 net52
*179 net53
*180 la_oenb[0]
*181 la_oenb[10]
*182 la_oenb[11]
*183 la_oenb[12]
*184 la_oenb[13]
*185 la_oenb[14]
*186 la_oenb[15]
*187 la_oenb[16]
*188 la_oenb[17]
*189 la_oenb[18]
*190 la_oenb[19]
*191 la_oenb[1]
*192 la_oenb[20]
*193 la_oenb[21]
*194 la_oenb[22]
*195 la_oenb[23]
*196 la_oenb[24]
*197 la_oenb[25]
*198 la_oenb[26]
*199 la_oenb[27]
*200 la_oenb[28]
*201 la_oenb[29]
*202 la_oenb[2]
*203 la_oenb[30]
*204 la_oenb[31]
*205 la_oenb[32]
*206 la_oenb[33]
*207 la_oenb[34]
*208 la_oenb[35]
*209 la_oenb[36]
*210 la_oenb[37]
*211 la_oenb[38]
*212 la_oenb[39]
*213 la_oenb[3]
*214 la_oenb[40]
*215 la_oenb[41]
*216 la_oenb[42]
*217 la_oenb[43]
*218 la_oenb[44]
*219 la_oenb[45]
*220 la_oenb[46]
*221 la_oenb[47]
*222 la_oenb[48]
*223 la_oenb[49]
*224 la_oenb[4]
*225 la_oenb[50]
*226 la_oenb[51]
*227 la_oenb[52]
*228 la_oenb[53]
*229 la_oenb[54]
*230 la_oenb[55]
*231 la_oenb[56]
*232 la_oenb[57]
*233 la_oenb[58]
*234 la_oenb[59]
*235 la_oenb[5]
*236 la_oenb[60]
*237 la_oenb[61]
*238 la_oenb[62]
*239 la_oenb[63]
*240 la_oenb[6]
*241 la_oenb[7]
*242 la_oenb[8]
*243 la_oenb[9]
*244 net108
*245 net109
*246 net110
*247 net111
*248 net112
*249 net113
*250 net114
*251 net115
*252 net116
*253 line_a_buf_b_clk
*254 net117
*255 net118
*256 net119
*257 net120
*258 net121
*259 net122
*260 net123
*261 net124
*262 net125
*263 line_a_buf_b_q[0]
*264 line_a_buf_b_q[1]
*265 line_a_buf_b_q[2]
*266 line_a_buf_b_q[3]
*267 line_a_buf_b_q[4]
*268 line_a_buf_b_q[5]
*269 line_a_buf_b_q[6]
*270 line_a_buf_b_q[7]
*271 net126
*272 net127
*273 net128
*274 net129
*275 net130
*276 net131
*277 net132
*278 net133
*279 net134
*280 net135
*281 net136
*282 net137
*283 net138
*284 net139
*285 net140
*286 net141
*287 net142
*288 line_a_buf_d_clk
*289 net143
*290 net144
*291 net145
*292 net146
*293 net147
*294 net148
*295 net149
*296 net150
*297 net151
*298 line_a_buf_d_q[0]
*299 line_a_buf_d_q[1]
*300 line_a_buf_d_q[2]
*301 line_a_buf_d_q[3]
*302 line_a_buf_d_q[4]
*303 line_a_buf_d_q[5]
*304 line_a_buf_d_q[6]
*305 line_a_buf_d_q[7]
*306 net152
*307 net153
*308 net154
*309 net155
*310 net156
*311 net157
*312 net158
*313 net159
*314 net160
*315 net161
*316 net162
*317 net163
*318 net164
*319 net165
*320 net166
*321 net167
*322 net168
*323 line_a_buf_g_clk
*324 net169
*325 net170
*326 net171
*327 net172
*328 net173
*329 net174
*330 net175
*331 net176
*332 net177
*333 line_a_buf_g_q[0]
*334 line_a_buf_g_q[1]
*335 line_a_buf_g_q[2]
*336 line_a_buf_g_q[3]
*337 line_a_buf_g_q[4]
*338 line_a_buf_g_q[5]
*339 line_a_buf_g_q[6]
*340 line_a_buf_g_q[7]
*341 net178
*342 net179
*343 net180
*344 net181
*345 net182
*346 net183
*347 net184
*348 net185
*349 net186
*350 net187
*351 net188
*352 net189
*353 net190
*354 net191
*355 net192
*356 net193
*357 net194
*358 line_a_buf_r_clk
*359 net195
*360 net196
*361 net197
*362 net198
*363 net199
*364 net200
*365 net201
*366 net202
*367 net203
*368 line_a_buf_r_q[0]
*369 line_a_buf_r_q[1]
*370 line_a_buf_r_q[2]
*371 line_a_buf_r_q[3]
*372 line_a_buf_r_q[4]
*373 line_a_buf_r_q[5]
*374 line_a_buf_r_q[6]
*375 line_a_buf_r_q[7]
*376 net204
*377 net205
*378 net206
*379 net207
*380 net208
*381 net209
*382 net210
*383 net211
*384 net212
*385 net213
*386 net214
*387 net215
*388 net216
*389 net217
*390 net218
*391 net219
*392 net220
*393 line_b_buf_b_clk
*394 net221
*395 net222
*396 net223
*397 net224
*398 net225
*399 net226
*400 net227
*401 net228
*402 net229
*403 line_b_buf_b_q[0]
*404 line_b_buf_b_q[1]
*405 line_b_buf_b_q[2]
*406 line_b_buf_b_q[3]
*407 line_b_buf_b_q[4]
*408 line_b_buf_b_q[5]
*409 line_b_buf_b_q[6]
*410 line_b_buf_b_q[7]
*411 net230
*412 net231
*413 net232
*414 net233
*415 net234
*416 net235
*417 net236
*418 net237
*419 net238
*420 net239
*421 net240
*422 net241
*423 net242
*424 net243
*425 net244
*426 net245
*427 net246
*428 line_b_buf_d_clk
*429 net247
*430 net248
*431 net249
*432 net250
*433 net251
*434 net252
*435 net253
*436 net254
*437 net255
*438 line_b_buf_d_q[0]
*439 line_b_buf_d_q[1]
*440 line_b_buf_d_q[2]
*441 line_b_buf_d_q[3]
*442 line_b_buf_d_q[4]
*443 line_b_buf_d_q[5]
*444 line_b_buf_d_q[6]
*445 line_b_buf_d_q[7]
*446 net256
*447 net257
*448 net258
*449 net259
*450 net260
*451 net261
*452 net262
*453 net263
*454 net264
*455 net265
*456 net266
*457 net267
*458 net268
*459 net269
*460 net270
*461 net271
*462 net272
*463 line_b_buf_g_clk
*464 net273
*465 net274
*466 net275
*467 net276
*468 net277
*469 net278
*470 net279
*471 net280
*472 net281
*473 line_b_buf_g_q[0]
*474 line_b_buf_g_q[1]
*475 line_b_buf_g_q[2]
*476 line_b_buf_g_q[3]
*477 line_b_buf_g_q[4]
*478 line_b_buf_g_q[5]
*479 line_b_buf_g_q[6]
*480 line_b_buf_g_q[7]
*481 net282
*482 net283
*483 net284
*484 net285
*485 net286
*486 net287
*487 net288
*488 net289
*489 net290
*490 net291
*491 net292
*492 net293
*493 net294
*494 net295
*495 net296
*496 net297
*497 net298
*498 line_b_buf_r_clk
*499 net299
*500 net300
*501 net301
*502 net302
*503 net303
*504 net304
*505 net305
*506 net306
*507 net307
*508 line_b_buf_r_q[0]
*509 line_b_buf_r_q[1]
*510 line_b_buf_r_q[2]
*511 line_b_buf_r_q[3]
*512 line_b_buf_r_q[4]
*513 line_b_buf_r_q[5]
*514 line_b_buf_r_q[6]
*515 line_b_buf_r_q[7]
*516 net308
*517 net309
*518 net310
*519 net311
*520 net312
*521 net313
*522 net314
*523 net315
*526 wb_clk_i
*527 wb_rst_i
*528 net316
*529 wbs_adr_i[0]
*530 wbs_adr_i[10]
*531 wbs_adr_i[11]
*532 wbs_adr_i[12]
*533 wbs_adr_i[13]
*534 wbs_adr_i[14]
*535 wbs_adr_i[15]
*536 wbs_adr_i[16]
*537 wbs_adr_i[17]
*538 wbs_adr_i[18]
*539 wbs_adr_i[19]
*540 wbs_adr_i[1]
*541 wbs_adr_i[20]
*542 wbs_adr_i[21]
*543 wbs_adr_i[22]
*544 wbs_adr_i[23]
*545 wbs_adr_i[24]
*546 wbs_adr_i[25]
*547 wbs_adr_i[26]
*548 wbs_adr_i[27]
*549 wbs_adr_i[28]
*550 wbs_adr_i[29]
*551 wbs_adr_i[2]
*552 wbs_adr_i[30]
*553 wbs_adr_i[31]
*554 wbs_adr_i[3]
*555 wbs_adr_i[4]
*556 wbs_adr_i[5]
*557 wbs_adr_i[6]
*558 wbs_adr_i[7]
*559 wbs_adr_i[8]
*560 wbs_adr_i[9]
*561 wbs_cyc_i
*562 wbs_dat_i[0]
*563 wbs_dat_i[10]
*564 wbs_dat_i[11]
*565 wbs_dat_i[12]
*566 wbs_dat_i[13]
*567 wbs_dat_i[14]
*568 wbs_dat_i[15]
*569 wbs_dat_i[16]
*570 wbs_dat_i[17]
*571 wbs_dat_i[18]
*572 wbs_dat_i[19]
*573 wbs_dat_i[1]
*574 wbs_dat_i[20]
*575 wbs_dat_i[21]
*576 wbs_dat_i[22]
*577 wbs_dat_i[23]
*578 wbs_dat_i[24]
*579 wbs_dat_i[25]
*580 wbs_dat_i[26]
*581 wbs_dat_i[27]
*582 wbs_dat_i[28]
*583 wbs_dat_i[29]
*584 wbs_dat_i[2]
*585 wbs_dat_i[30]
*586 wbs_dat_i[31]
*587 wbs_dat_i[3]
*588 wbs_dat_i[4]
*589 wbs_dat_i[5]
*590 wbs_dat_i[6]
*591 wbs_dat_i[7]
*592 wbs_dat_i[8]
*593 wbs_dat_i[9]
*594 net317
*595 net327
*596 net328
*597 net329
*598 net330
*599 net331
*600 net332
*601 net333
*602 net334
*603 net335
*604 net336
*605 net318
*606 net337
*607 net338
*608 net339
*609 net340
*610 net341
*611 net342
*612 net343
*613 net344
*614 net345
*615 net346
*616 net319
*617 net347
*618 net348
*619 net320
*620 net321
*621 net322
*622 net323
*623 net324
*624 net325
*625 net326
*626 wbs_sel_i[0]
*627 wbs_sel_i[1]
*628 wbs_sel_i[2]
*629 wbs_sel_i[3]
*630 wbs_stb_i
*631 wbs_we_i
*632 clknet_0_wb_clk_i
*633 clknet_1_0__leaf_wb_clk_i
*634 clknet_1_1__leaf_wb_clk_i
*635 net1
*636 net2
*637 net3
*638 net4
*639 net5
*640 net6
*641 net7
*642 net8
*643 ANTENNA__340__I
*644 ANTENNA__341__I
*645 ANTENNA__342__I
*646 ANTENNA__343__I
*647 ANTENNA__344__I
*648 ANTENNA__345__I
*649 ANTENNA__346__I
*650 ANTENNA__347__I
*651 ANTENNA_clkbuf_0_wb_clk_i_I
*652 ANTENNA_clkbuf_1_0__f_wb_clk_i_I
*653 ANTENNA_clkbuf_1_1__f_wb_clk_i_I
*654 ANTENNA_output4_I
*655 FILLER_0_0_1003
*656 FILLER_0_0_1019
*657 FILLER_0_0_1022
*658 FILLER_0_0_1038
*659 FILLER_0_0_104
*660 FILLER_0_0_1046
*661 FILLER_0_0_1051
*662 FILLER_0_0_1053
*663 FILLER_0_0_1056
*664 FILLER_0_0_1090
*665 FILLER_0_0_1094
*666 FILLER_0_0_1099
*667 FILLER_0_0_1115
*668 FILLER_0_0_1119
*669 FILLER_0_0_112
*670 FILLER_0_0_1121
*671 FILLER_0_0_1124
*672 FILLER_0_0_1140
*673 FILLER_0_0_1142
*674 FILLER_0_0_1147
*675 FILLER_0_0_1155
*676 FILLER_0_0_1158
*677 FILLER_0_0_116
*678 FILLER_0_0_118
*679 FILLER_0_0_1196
*680 FILLER_0_0_1212
*681 FILLER_0_0_1220
*682 FILLER_0_0_1226
*683 FILLER_0_0_123
*684 FILLER_0_0_1234
*685 FILLER_0_0_1238
*686 FILLER_0_0_1243
*687 FILLER_0_0_1251
*688 FILLER_0_0_1255
*689 FILLER_0_0_1257
*690 FILLER_0_0_1260
*691 FILLER_0_0_1276
*692 FILLER_0_0_1284
*693 FILLER_0_0_1286
*694 FILLER_0_0_1291
*695 FILLER_0_0_1294
*696 FILLER_0_0_131
*697 FILLER_0_0_1328
*698 FILLER_0_0_1332
*699 FILLER_0_0_1334
*700 FILLER_0_0_1339
*701 FILLER_0_0_135
*702 FILLER_0_0_1355
*703 FILLER_0_0_1359
*704 FILLER_0_0_1362
*705 FILLER_0_0_1378
*706 FILLER_0_0_138
*707 FILLER_0_0_1382
*708 FILLER_0_0_1387
*709 FILLER_0_0_1391
*710 FILLER_0_0_1393
*711 FILLER_0_0_1396
*712 FILLER_0_0_1430
*713 FILLER_0_0_1435
*714 FILLER_0_0_1451
*715 FILLER_0_0_1459
*716 FILLER_0_0_1461
*717 FILLER_0_0_1464
*718 FILLER_0_0_1472
*719 FILLER_0_0_1476
*720 FILLER_0_0_1478
*721 FILLER_0_0_1483
*722 FILLER_0_0_1491
*723 FILLER_0_0_1495
*724 FILLER_0_0_1498
*725 FILLER_0_0_1536
*726 FILLER_0_0_1552
*727 FILLER_0_0_1560
*728 FILLER_0_0_1566
*729 FILLER_0_0_1574
*730 FILLER_0_0_1579
*731 FILLER_0_0_1595
*732 FILLER_0_0_1597
*733 FILLER_0_0_1600
*734 FILLER_0_0_1616
*735 FILLER_0_0_1620
*736 FILLER_0_0_1622
*737 FILLER_0_0_1627
*738 FILLER_0_0_1631
*739 FILLER_0_0_1634
*740 FILLER_0_0_1668
*741 FILLER_0_0_1670
*742 FILLER_0_0_1675
*743 FILLER_0_0_1691
*744 FILLER_0_0_1699
*745 FILLER_0_0_1702
*746 FILLER_0_0_1718
*747 FILLER_0_0_172
*748 FILLER_0_0_1723
*749 FILLER_0_0_1731
*750 FILLER_0_0_1733
*751 FILLER_0_0_1736
*752 FILLER_0_0_1774
*753 FILLER_0_0_1790
*754 FILLER_0_0_1798
*755 FILLER_0_0_1808
*756 FILLER_0_0_1824
*757 FILLER_0_0_1832
*758 FILLER_0_0_1838
*759 FILLER_0_0_1846
*760 FILLER_0_0_1851
*761 FILLER_0_0_1867
*762 FILLER_0_0_1869
*763 FILLER_0_0_1872
*764 FILLER_0_0_1888
*765 FILLER_0_0_1892
*766 FILLER_0_0_1894
*767 FILLER_0_0_1899
*768 FILLER_0_0_1903
*769 FILLER_0_0_1906
*770 FILLER_0_0_1940
*771 FILLER_0_0_1942
*772 FILLER_0_0_1947
*773 FILLER_0_0_1963
*774 FILLER_0_0_1971
*775 FILLER_0_0_1974
*776 FILLER_0_0_1990
*777 FILLER_0_0_1995
*778 FILLER_0_0_2
*779 FILLER_0_0_2003
*780 FILLER_0_0_2005
*781 FILLER_0_0_2008
*782 FILLER_0_0_2046
*783 FILLER_0_0_206
*784 FILLER_0_0_2062
*785 FILLER_0_0_2070
*786 FILLER_0_0_2076
*787 FILLER_0_0_2084
*788 FILLER_0_0_2086
*789 FILLER_0_0_2091
*790 FILLER_0_0_2107
*791 FILLER_0_0_2110
*792 FILLER_0_0_2126
*793 FILLER_0_0_2134
*794 FILLER_0_0_2139
*795 FILLER_0_0_214
*796 FILLER_0_0_2141
*797 FILLER_0_0_2144
*798 FILLER_0_0_2178
*799 FILLER_0_0_2182
*800 FILLER_0_0_2187
*801 FILLER_0_0_219
*802 FILLER_0_0_2203
*803 FILLER_0_0_2207
*804 FILLER_0_0_2209
*805 FILLER_0_0_2212
*806 FILLER_0_0_2228
*807 FILLER_0_0_2230
*808 FILLER_0_0_2235
*809 FILLER_0_0_2243
*810 FILLER_0_0_2246
*811 FILLER_0_0_2284
*812 FILLER_0_0_2300
*813 FILLER_0_0_2308
*814 FILLER_0_0_2314
*815 FILLER_0_0_2322
*816 FILLER_0_0_2326
*817 FILLER_0_0_2331
*818 FILLER_0_0_2339
*819 FILLER_0_0_2343
*820 FILLER_0_0_2345
*821 FILLER_0_0_2348
*822 FILLER_0_0_235
*823 FILLER_0_0_2364
*824 FILLER_0_0_237
*825 FILLER_0_0_2372
*826 FILLER_0_0_2374
*827 FILLER_0_0_2379
*828 FILLER_0_0_2382
*829 FILLER_0_0_240
*830 FILLER_0_0_2416
*831 FILLER_0_0_2420
*832 FILLER_0_0_2422
*833 FILLER_0_0_2427
*834 FILLER_0_0_2443
*835 FILLER_0_0_2447
*836 FILLER_0_0_2450
*837 FILLER_0_0_2466
*838 FILLER_0_0_2470
*839 FILLER_0_0_2475
*840 FILLER_0_0_2479
*841 FILLER_0_0_2481
*842 FILLER_0_0_2484
*843 FILLER_0_0_2518
*844 FILLER_0_0_2523
*845 FILLER_0_0_2539
*846 FILLER_0_0_2547
*847 FILLER_0_0_2549
*848 FILLER_0_0_2552
*849 FILLER_0_0_2560
*850 FILLER_0_0_2564
*851 FILLER_0_0_2566
*852 FILLER_0_0_2571
*853 FILLER_0_0_2579
*854 FILLER_0_0_2583
*855 FILLER_0_0_2586
*856 FILLER_0_0_2624
*857 FILLER_0_0_2640
*858 FILLER_0_0_2648
*859 FILLER_0_0_2654
*860 FILLER_0_0_2662
*861 FILLER_0_0_2667
*862 FILLER_0_0_2683
*863 FILLER_0_0_2685
*864 FILLER_0_0_2688
*865 FILLER_0_0_2704
*866 FILLER_0_0_2708
*867 FILLER_0_0_2710
*868 FILLER_0_0_2715
*869 FILLER_0_0_2719
*870 FILLER_0_0_2722
*871 FILLER_0_0_274
*872 FILLER_0_0_2756
*873 FILLER_0_0_2758
*874 FILLER_0_0_2763
*875 FILLER_0_0_2779
*876 FILLER_0_0_278
*877 FILLER_0_0_2787
*878 FILLER_0_0_2790
*879 FILLER_0_0_2806
*880 FILLER_0_0_2811
*881 FILLER_0_0_2819
*882 FILLER_0_0_2821
*883 FILLER_0_0_2824
*884 FILLER_0_0_283
*885 FILLER_0_0_2862
*886 FILLER_0_0_2878
*887 FILLER_0_0_2886
*888 FILLER_0_0_2892
*889 FILLER_0_0_2900
*890 FILLER_0_0_2902
*891 FILLER_0_0_2907
*892 FILLER_0_0_2923
*893 FILLER_0_0_2926
*894 FILLER_0_0_2942
*895 FILLER_0_0_2950
*896 FILLER_0_0_2955
*897 FILLER_0_0_2957
*898 FILLER_0_0_2960
*899 FILLER_0_0_299
*900 FILLER_0_0_2994
*901 FILLER_0_0_2998
*902 FILLER_0_0_3003
*903 FILLER_0_0_3019
*904 FILLER_0_0_3023
*905 FILLER_0_0_3025
*906 FILLER_0_0_3028
*907 FILLER_0_0_303
*908 FILLER_0_0_3044
*909 FILLER_0_0_3046
*910 FILLER_0_0_305
*911 FILLER_0_0_3051
*912 FILLER_0_0_3059
*913 FILLER_0_0_3062
*914 FILLER_0_0_308
*915 FILLER_0_0_3100
*916 FILLER_0_0_3116
*917 FILLER_0_0_3124
*918 FILLER_0_0_3130
*919 FILLER_0_0_3138
*920 FILLER_0_0_3142
*921 FILLER_0_0_3147
*922 FILLER_0_0_3155
*923 FILLER_0_0_3159
*924 FILLER_0_0_3161
*925 FILLER_0_0_3164
*926 FILLER_0_0_3180
*927 FILLER_0_0_3188
*928 FILLER_0_0_3190
*929 FILLER_0_0_3195
*930 FILLER_0_0_3198
*931 FILLER_0_0_3232
*932 FILLER_0_0_3236
*933 FILLER_0_0_3238
*934 FILLER_0_0_3243
*935 FILLER_0_0_3259
*936 FILLER_0_0_3263
*937 FILLER_0_0_3266
*938 FILLER_0_0_3282
*939 FILLER_0_0_3286
*940 FILLER_0_0_3291
*941 FILLER_0_0_3295
*942 FILLER_0_0_3297
*943 FILLER_0_0_3300
*944 FILLER_0_0_3334
*945 FILLER_0_0_3339
*946 FILLER_0_0_3355
*947 FILLER_0_0_3363
*948 FILLER_0_0_3365
*949 FILLER_0_0_3368
*950 FILLER_0_0_3376
*951 FILLER_0_0_3380
*952 FILLER_0_0_3382
*953 FILLER_0_0_3387
*954 FILLER_0_0_3395
*955 FILLER_0_0_3399
*956 FILLER_0_0_3402
*957 FILLER_0_0_342
*958 FILLER_0_0_3440
*959 FILLER_0_0_3456
*960 FILLER_0_0_3464
*961 FILLER_0_0_347
*962 FILLER_0_0_3470
*963 FILLER_0_0_3478
*964 FILLER_0_0_3483
*965 FILLER_0_0_3499
*966 FILLER_0_0_3501
*967 FILLER_0_0_3504
*968 FILLER_0_0_3520
*969 FILLER_0_0_3524
*970 FILLER_0_0_3526
*971 FILLER_0_0_3531
*972 FILLER_0_0_3535
*973 FILLER_0_0_3538
*974 FILLER_0_0_3572
*975 FILLER_0_0_3574
*976 FILLER_0_0_3579
*977 FILLER_0_0_3595
*978 FILLER_0_0_36
*979 FILLER_0_0_3603
*980 FILLER_0_0_3606
*981 FILLER_0_0_3622
*982 FILLER_0_0_3627
*983 FILLER_0_0_363
*984 FILLER_0_0_3635
*985 FILLER_0_0_3637
*986 FILLER_0_0_3640
*987 FILLER_0_0_3678
*988 FILLER_0_0_3694
*989 FILLER_0_0_3702
*990 FILLER_0_0_3708
*991 FILLER_0_0_371
*992 FILLER_0_0_3716
*993 FILLER_0_0_3718
*994 FILLER_0_0_3723
*995 FILLER_0_0_373
*996 FILLER_0_0_3739
*997 FILLER_0_0_3742
*998 FILLER_0_0_3758
*999 FILLER_0_0_376
*1000 FILLER_0_0_3766
*1001 FILLER_0_0_3771
*1002 FILLER_0_0_3773
*1003 FILLER_0_0_3776
*1004 FILLER_0_0_3810
*1005 FILLER_0_0_3814
*1006 FILLER_0_0_3819
*1007 FILLER_0_0_3835
*1008 FILLER_0_0_3839
*1009 FILLER_0_0_3841
*1010 FILLER_0_0_3844
*1011 FILLER_0_0_3860
*1012 FILLER_0_0_3862
*1013 FILLER_0_0_3867
*1014 FILLER_0_0_3875
*1015 FILLER_0_0_3878
*1016 FILLER_0_0_3916
*1017 FILLER_0_0_3932
*1018 FILLER_0_0_3940
*1019 FILLER_0_0_3946
*1020 FILLER_0_0_3954
*1021 FILLER_0_0_3958
*1022 FILLER_0_0_3963
*1023 FILLER_0_0_3971
*1024 FILLER_0_0_3975
*1025 FILLER_0_0_3977
*1026 FILLER_0_0_3980
*1027 FILLER_0_0_3996
*1028 FILLER_0_0_4004
*1029 FILLER_0_0_4006
*1030 FILLER_0_0_4011
*1031 FILLER_0_0_4014
*1032 FILLER_0_0_4048
*1033 FILLER_0_0_4052
*1034 FILLER_0_0_4054
*1035 FILLER_0_0_4059
*1036 FILLER_0_0_4075
*1037 FILLER_0_0_4079
*1038 FILLER_0_0_4082
*1039 FILLER_0_0_4098
*1040 FILLER_0_0_4102
*1041 FILLER_0_0_4107
*1042 FILLER_0_0_4111
*1043 FILLER_0_0_4113
*1044 FILLER_0_0_4116
*1045 FILLER_0_0_414
*1046 FILLER_0_0_4150
*1047 FILLER_0_0_4155
*1048 FILLER_0_0_4171
*1049 FILLER_0_0_4179
*1050 FILLER_0_0_4181
*1051 FILLER_0_0_4184
*1052 FILLER_0_0_4192
*1053 FILLER_0_0_4196
*1054 FILLER_0_0_4198
*1055 FILLER_0_0_4203
*1056 FILLER_0_0_4211
*1057 FILLER_0_0_4215
*1058 FILLER_0_0_4218
*1059 FILLER_0_0_4256
*1060 FILLER_0_0_4272
*1061 FILLER_0_0_4280
*1062 FILLER_0_0_4286
*1063 FILLER_0_0_4294
*1064 FILLER_0_0_4299
*1065 FILLER_0_0_430
*1066 FILLER_0_0_4315
*1067 FILLER_0_0_4317
*1068 FILLER_0_0_4320
*1069 FILLER_0_0_4336
*1070 FILLER_0_0_4340
*1071 FILLER_0_0_4342
*1072 FILLER_0_0_4347
*1073 FILLER_0_0_4351
*1074 FILLER_0_0_4354
*1075 FILLER_0_0_438
*1076 FILLER_0_0_4388
*1077 FILLER_0_0_4390
*1078 FILLER_0_0_4395
*1079 FILLER_0_0_4411
*1080 FILLER_0_0_4419
*1081 FILLER_0_0_4422
*1082 FILLER_0_0_4438
*1083 FILLER_0_0_444
*1084 FILLER_0_0_4443
*1085 FILLER_0_0_4451
*1086 FILLER_0_0_4453
*1087 FILLER_0_0_4456
*1088 FILLER_0_0_4494
*1089 FILLER_0_0_4510
*1090 FILLER_0_0_4518
*1091 FILLER_0_0_4524
*1092 FILLER_0_0_4532
*1093 FILLER_0_0_4534
*1094 FILLER_0_0_4539
*1095 FILLER_0_0_4555
*1096 FILLER_0_0_4558
*1097 FILLER_0_0_4574
*1098 FILLER_0_0_4582
*1099 FILLER_0_0_4587
*1100 FILLER_0_0_4589
*1101 FILLER_0_0_4592
*1102 FILLER_0_0_460
*1103 FILLER_0_0_4626
*1104 FILLER_0_0_4630
*1105 FILLER_0_0_4635
*1106 FILLER_0_0_4651
*1107 FILLER_0_0_4655
*1108 FILLER_0_0_4657
*1109 FILLER_0_0_4660
*1110 FILLER_0_0_4676
*1111 FILLER_0_0_4678
*1112 FILLER_0_0_468
*1113 FILLER_0_0_4683
*1114 FILLER_0_0_4691
*1115 FILLER_0_0_4694
*1116 FILLER_0_0_470
*1117 FILLER_0_0_4732
*1118 FILLER_0_0_4748
*1119 FILLER_0_0_475
*1120 FILLER_0_0_4756
*1121 FILLER_0_0_4762
*1122 FILLER_0_0_4770
*1123 FILLER_0_0_4774
*1124 FILLER_0_0_4779
*1125 FILLER_0_0_478
*1126 FILLER_0_0_4787
*1127 FILLER_0_0_4791
*1128 FILLER_0_0_4793
*1129 FILLER_0_0_4796
*1130 FILLER_0_0_4812
*1131 FILLER_0_0_4820
*1132 FILLER_0_0_4822
*1133 FILLER_0_0_4827
*1134 FILLER_0_0_4830
*1135 FILLER_0_0_4846
*1136 FILLER_0_0_4854
*1137 FILLER_0_0_4859
*1138 FILLER_0_0_4861
*1139 FILLER_0_0_4864
*1140 FILLER_0_0_4868
*1141 FILLER_0_0_4870
*1142 FILLER_0_0_4875
*1143 FILLER_0_0_4883
*1144 FILLER_0_0_4891
*1145 FILLER_0_0_4895
*1146 FILLER_0_0_4898
*1147 FILLER_0_0_4932
*1148 FILLER_0_0_4966
*1149 FILLER_0_0_512
*1150 FILLER_0_0_516
*1151 FILLER_0_0_518
*1152 FILLER_0_0_523
*1153 FILLER_0_0_539
*1154 FILLER_0_0_543
*1155 FILLER_0_0_546
*1156 FILLER_0_0_562
*1157 FILLER_0_0_566
*1158 FILLER_0_0_571
*1159 FILLER_0_0_575
*1160 FILLER_0_0_577
*1161 FILLER_0_0_580
*1162 FILLER_0_0_614
*1163 FILLER_0_0_619
*1164 FILLER_0_0_635
*1165 FILLER_0_0_643
*1166 FILLER_0_0_645
*1167 FILLER_0_0_648
*1168 FILLER_0_0_656
*1169 FILLER_0_0_660
*1170 FILLER_0_0_662
*1171 FILLER_0_0_667
*1172 FILLER_0_0_675
*1173 FILLER_0_0_679
*1174 FILLER_0_0_682
*1175 FILLER_0_0_70
*1176 FILLER_0_0_720
*1177 FILLER_0_0_736
*1178 FILLER_0_0_744
*1179 FILLER_0_0_750
*1180 FILLER_0_0_758
*1181 FILLER_0_0_763
*1182 FILLER_0_0_779
*1183 FILLER_0_0_781
*1184 FILLER_0_0_784
*1185 FILLER_0_0_800
*1186 FILLER_0_0_804
*1187 FILLER_0_0_806
*1188 FILLER_0_0_811
*1189 FILLER_0_0_815
*1190 FILLER_0_0_818
*1191 FILLER_0_0_852
*1192 FILLER_0_0_854
*1193 FILLER_0_0_859
*1194 FILLER_0_0_875
*1195 FILLER_0_0_883
*1196 FILLER_0_0_886
*1197 FILLER_0_0_902
*1198 FILLER_0_0_907
*1199 FILLER_0_0_915
*1200 FILLER_0_0_917
*1201 FILLER_0_0_920
*1202 FILLER_0_0_958
*1203 FILLER_0_0_974
*1204 FILLER_0_0_982
*1205 FILLER_0_0_988
*1206 FILLER_0_0_996
*1207 FILLER_0_0_998
*1208 FILLER_0_100_101
*1209 FILLER_0_100_1011
*1210 FILLER_0_100_1017
*1211 FILLER_0_100_107
*1212 FILLER_0_100_1081
*1213 FILLER_0_100_1087
*1214 FILLER_0_100_1151
*1215 FILLER_0_100_1157
*1216 FILLER_0_100_1221
*1217 FILLER_0_100_1227
*1218 FILLER_0_100_1291
*1219 FILLER_0_100_1297
*1220 FILLER_0_100_1361
*1221 FILLER_0_100_1367
*1222 FILLER_0_100_1431
*1223 FILLER_0_100_1437
*1224 FILLER_0_100_1501
*1225 FILLER_0_100_1507
*1226 FILLER_0_100_1571
*1227 FILLER_0_100_1577
*1228 FILLER_0_100_1641
*1229 FILLER_0_100_1647
*1230 FILLER_0_100_171
*1231 FILLER_0_100_1711
*1232 FILLER_0_100_1717
*1233 FILLER_0_100_177
*1234 FILLER_0_100_1781
*1235 FILLER_0_100_1787
*1236 FILLER_0_100_1851
*1237 FILLER_0_100_1857
*1238 FILLER_0_100_1921
*1239 FILLER_0_100_1927
*1240 FILLER_0_100_1991
*1241 FILLER_0_100_1997
*1242 FILLER_0_100_2
*1243 FILLER_0_100_2061
*1244 FILLER_0_100_2067
*1245 FILLER_0_100_2131
*1246 FILLER_0_100_2137
*1247 FILLER_0_100_2201
*1248 FILLER_0_100_2207
*1249 FILLER_0_100_2271
*1250 FILLER_0_100_2277
*1251 FILLER_0_100_2341
*1252 FILLER_0_100_2347
*1253 FILLER_0_100_241
*1254 FILLER_0_100_2411
*1255 FILLER_0_100_2417
*1256 FILLER_0_100_247
*1257 FILLER_0_100_2481
*1258 FILLER_0_100_2487
*1259 FILLER_0_100_2551
*1260 FILLER_0_100_2557
*1261 FILLER_0_100_2621
*1262 FILLER_0_100_2627
*1263 FILLER_0_100_2691
*1264 FILLER_0_100_2697
*1265 FILLER_0_100_2761
*1266 FILLER_0_100_2767
*1267 FILLER_0_100_2831
*1268 FILLER_0_100_2837
*1269 FILLER_0_100_2901
*1270 FILLER_0_100_2907
*1271 FILLER_0_100_2971
*1272 FILLER_0_100_2977
*1273 FILLER_0_100_3041
*1274 FILLER_0_100_3047
*1275 FILLER_0_100_311
*1276 FILLER_0_100_3111
*1277 FILLER_0_100_3117
*1278 FILLER_0_100_317
*1279 FILLER_0_100_3181
*1280 FILLER_0_100_3187
*1281 FILLER_0_100_3251
*1282 FILLER_0_100_3257
*1283 FILLER_0_100_3321
*1284 FILLER_0_100_3327
*1285 FILLER_0_100_3391
*1286 FILLER_0_100_3397
*1287 FILLER_0_100_34
*1288 FILLER_0_100_3461
*1289 FILLER_0_100_3467
*1290 FILLER_0_100_3531
*1291 FILLER_0_100_3537
*1292 FILLER_0_100_3601
*1293 FILLER_0_100_3607
*1294 FILLER_0_100_3671
*1295 FILLER_0_100_3677
*1296 FILLER_0_100_37
*1297 FILLER_0_100_3741
*1298 FILLER_0_100_3747
*1299 FILLER_0_100_381
*1300 FILLER_0_100_3811
*1301 FILLER_0_100_3817
*1302 FILLER_0_100_387
*1303 FILLER_0_100_3881
*1304 FILLER_0_100_3887
*1305 FILLER_0_100_3951
*1306 FILLER_0_100_3957
*1307 FILLER_0_100_4021
*1308 FILLER_0_100_4027
*1309 FILLER_0_100_4091
*1310 FILLER_0_100_4097
*1311 FILLER_0_100_4161
*1312 FILLER_0_100_4167
*1313 FILLER_0_100_4231
*1314 FILLER_0_100_4237
*1315 FILLER_0_100_4301
*1316 FILLER_0_100_4307
*1317 FILLER_0_100_4371
*1318 FILLER_0_100_4377
*1319 FILLER_0_100_4441
*1320 FILLER_0_100_4447
*1321 FILLER_0_100_451
*1322 FILLER_0_100_4511
*1323 FILLER_0_100_4517
*1324 FILLER_0_100_457
*1325 FILLER_0_100_4581
*1326 FILLER_0_100_4587
*1327 FILLER_0_100_4651
*1328 FILLER_0_100_4657
*1329 FILLER_0_100_4721
*1330 FILLER_0_100_4727
*1331 FILLER_0_100_4791
*1332 FILLER_0_100_4797
*1333 FILLER_0_100_4861
*1334 FILLER_0_100_4867
*1335 FILLER_0_100_4931
*1336 FILLER_0_100_4937
*1337 FILLER_0_100_4969
*1338 FILLER_0_100_521
*1339 FILLER_0_100_527
*1340 FILLER_0_100_591
*1341 FILLER_0_100_597
*1342 FILLER_0_100_661
*1343 FILLER_0_100_667
*1344 FILLER_0_100_731
*1345 FILLER_0_100_737
*1346 FILLER_0_100_801
*1347 FILLER_0_100_807
*1348 FILLER_0_100_871
*1349 FILLER_0_100_877
*1350 FILLER_0_100_941
*1351 FILLER_0_100_947
*1352 FILLER_0_101_1046
*1353 FILLER_0_101_1052
*1354 FILLER_0_101_1116
*1355 FILLER_0_101_1122
*1356 FILLER_0_101_1186
*1357 FILLER_0_101_1192
*1358 FILLER_0_101_1256
*1359 FILLER_0_101_1262
*1360 FILLER_0_101_1326
*1361 FILLER_0_101_1332
*1362 FILLER_0_101_136
*1363 FILLER_0_101_1396
*1364 FILLER_0_101_1402
*1365 FILLER_0_101_142
*1366 FILLER_0_101_1466
*1367 FILLER_0_101_1472
*1368 FILLER_0_101_1536
*1369 FILLER_0_101_1542
*1370 FILLER_0_101_1606
*1371 FILLER_0_101_1612
*1372 FILLER_0_101_1676
*1373 FILLER_0_101_1682
*1374 FILLER_0_101_1746
*1375 FILLER_0_101_1752
*1376 FILLER_0_101_1816
*1377 FILLER_0_101_1822
*1378 FILLER_0_101_1886
*1379 FILLER_0_101_1892
*1380 FILLER_0_101_1956
*1381 FILLER_0_101_1962
*1382 FILLER_0_101_2
*1383 FILLER_0_101_2026
*1384 FILLER_0_101_2032
*1385 FILLER_0_101_206
*1386 FILLER_0_101_2096
*1387 FILLER_0_101_2102
*1388 FILLER_0_101_212
*1389 FILLER_0_101_2166
*1390 FILLER_0_101_2172
*1391 FILLER_0_101_2236
*1392 FILLER_0_101_2242
*1393 FILLER_0_101_2306
*1394 FILLER_0_101_2312
*1395 FILLER_0_101_2376
*1396 FILLER_0_101_2382
*1397 FILLER_0_101_2446
*1398 FILLER_0_101_2452
*1399 FILLER_0_101_2516
*1400 FILLER_0_101_2522
*1401 FILLER_0_101_2586
*1402 FILLER_0_101_2592
*1403 FILLER_0_101_2656
*1404 FILLER_0_101_2662
*1405 FILLER_0_101_2726
*1406 FILLER_0_101_2732
*1407 FILLER_0_101_276
*1408 FILLER_0_101_2796
*1409 FILLER_0_101_2802
*1410 FILLER_0_101_282
*1411 FILLER_0_101_2866
*1412 FILLER_0_101_2872
*1413 FILLER_0_101_2936
*1414 FILLER_0_101_2942
*1415 FILLER_0_101_3006
*1416 FILLER_0_101_3012
*1417 FILLER_0_101_3076
*1418 FILLER_0_101_3082
*1419 FILLER_0_101_3146
*1420 FILLER_0_101_3152
*1421 FILLER_0_101_3216
*1422 FILLER_0_101_3222
*1423 FILLER_0_101_3286
*1424 FILLER_0_101_3292
*1425 FILLER_0_101_3356
*1426 FILLER_0_101_3362
*1427 FILLER_0_101_3426
*1428 FILLER_0_101_3432
*1429 FILLER_0_101_346
*1430 FILLER_0_101_3496
*1431 FILLER_0_101_3502
*1432 FILLER_0_101_352
*1433 FILLER_0_101_3566
*1434 FILLER_0_101_3572
*1435 FILLER_0_101_3636
*1436 FILLER_0_101_3642
*1437 FILLER_0_101_3706
*1438 FILLER_0_101_3712
*1439 FILLER_0_101_3776
*1440 FILLER_0_101_3782
*1441 FILLER_0_101_3846
*1442 FILLER_0_101_3852
*1443 FILLER_0_101_3916
*1444 FILLER_0_101_3922
*1445 FILLER_0_101_3986
*1446 FILLER_0_101_3992
*1447 FILLER_0_101_4056
*1448 FILLER_0_101_4062
*1449 FILLER_0_101_4126
*1450 FILLER_0_101_4132
*1451 FILLER_0_101_416
*1452 FILLER_0_101_4196
*1453 FILLER_0_101_4202
*1454 FILLER_0_101_422
*1455 FILLER_0_101_4266
*1456 FILLER_0_101_4272
*1457 FILLER_0_101_4336
*1458 FILLER_0_101_4342
*1459 FILLER_0_101_4406
*1460 FILLER_0_101_4412
*1461 FILLER_0_101_4476
*1462 FILLER_0_101_4482
*1463 FILLER_0_101_4546
*1464 FILLER_0_101_4552
*1465 FILLER_0_101_4616
*1466 FILLER_0_101_4622
*1467 FILLER_0_101_4686
*1468 FILLER_0_101_4692
*1469 FILLER_0_101_4756
*1470 FILLER_0_101_4762
*1471 FILLER_0_101_4826
*1472 FILLER_0_101_4832
*1473 FILLER_0_101_486
*1474 FILLER_0_101_4896
*1475 FILLER_0_101_4902
*1476 FILLER_0_101_492
*1477 FILLER_0_101_4966
*1478 FILLER_0_101_4972
*1479 FILLER_0_101_556
*1480 FILLER_0_101_562
*1481 FILLER_0_101_626
*1482 FILLER_0_101_632
*1483 FILLER_0_101_66
*1484 FILLER_0_101_696
*1485 FILLER_0_101_702
*1486 FILLER_0_101_72
*1487 FILLER_0_101_766
*1488 FILLER_0_101_772
*1489 FILLER_0_101_836
*1490 FILLER_0_101_842
*1491 FILLER_0_101_906
*1492 FILLER_0_101_912
*1493 FILLER_0_101_976
*1494 FILLER_0_101_982
*1495 FILLER_0_102_101
*1496 FILLER_0_102_1011
*1497 FILLER_0_102_1017
*1498 FILLER_0_102_107
*1499 FILLER_0_102_1081
*1500 FILLER_0_102_1087
*1501 FILLER_0_102_1151
*1502 FILLER_0_102_1157
*1503 FILLER_0_102_1221
*1504 FILLER_0_102_1227
*1505 FILLER_0_102_1291
*1506 FILLER_0_102_1297
*1507 FILLER_0_102_1361
*1508 FILLER_0_102_1367
*1509 FILLER_0_102_1431
*1510 FILLER_0_102_1437
*1511 FILLER_0_102_1501
*1512 FILLER_0_102_1507
*1513 FILLER_0_102_1571
*1514 FILLER_0_102_1577
*1515 FILLER_0_102_1641
*1516 FILLER_0_102_1647
*1517 FILLER_0_102_171
*1518 FILLER_0_102_1711
*1519 FILLER_0_102_1717
*1520 FILLER_0_102_177
*1521 FILLER_0_102_1781
*1522 FILLER_0_102_1787
*1523 FILLER_0_102_1851
*1524 FILLER_0_102_1857
*1525 FILLER_0_102_1921
*1526 FILLER_0_102_1927
*1527 FILLER_0_102_1991
*1528 FILLER_0_102_1997
*1529 FILLER_0_102_2
*1530 FILLER_0_102_2061
*1531 FILLER_0_102_2067
*1532 FILLER_0_102_2131
*1533 FILLER_0_102_2137
*1534 FILLER_0_102_2201
*1535 FILLER_0_102_2207
*1536 FILLER_0_102_2271
*1537 FILLER_0_102_2277
*1538 FILLER_0_102_2341
*1539 FILLER_0_102_2347
*1540 FILLER_0_102_241
*1541 FILLER_0_102_2411
*1542 FILLER_0_102_2417
*1543 FILLER_0_102_247
*1544 FILLER_0_102_2481
*1545 FILLER_0_102_2487
*1546 FILLER_0_102_2551