*SPEF "ieee 1481-1999"
*DESIGN "user_project_wrapper"
*DATE "11:11:11 Fri 11 11, 1111"
*VENDOR "OpenRCX"
*PROGRAM "Parallel Extraction"
*VERSION "1.0"
*DESIGN_FLOW "NAME_SCOPE LOCAL" "PIN_CAP NONE"
*DIVIDER /
*DELIMITER :
*BUS_DELIMITER []
*T_UNIT 1 NS
*C_UNIT 1 PF
*R_UNIT 1 OHM
*L_UNIT 1 HENRY

*NAME_MAP
*1 io_in[0]
*2 io_in[10]
*3 io_in[11]
*4 io_in[12]
*5 io_in[13]
*6 io_in[14]
*7 io_in[15]
*8 io_in[16]
*9 io_in[17]
*10 io_in[18]
*11 io_in[19]
*12 io_in[1]
*13 io_in[20]
*14 io_in[21]
*15 io_in[22]
*16 io_in[23]
*17 io_in[24]
*18 io_in[25]
*19 io_in[26]
*20 io_in[27]
*21 io_in[28]
*22 io_in[29]
*23 io_in[2]
*24 io_in[30]
*25 io_in[31]
*26 io_in[32]
*27 io_in[33]
*28 io_in[34]
*29 io_in[35]
*30 io_in[36]
*31 io_in[37]
*32 io_in[3]
*33 io_in[4]
*34 io_in[5]
*35 io_in[6]
*36 io_in[7]
*37 io_in[8]
*38 io_in[9]
*39 io_oeb[0]
*40 io_oeb[10]
*41 io_oeb[11]
*42 io_oeb[12]
*43 io_oeb[13]
*44 io_oeb[14]
*45 io_oeb[15]
*46 io_oeb[16]
*47 io_oeb[17]
*48 io_oeb[18]
*49 io_oeb[19]
*50 io_oeb[1]
*51 io_oeb[20]
*52 io_oeb[21]
*53 io_oeb[22]
*54 io_oeb[23]
*55 io_oeb[24]
*56 io_oeb[25]
*57 io_oeb[26]
*58 io_oeb[27]
*59 io_oeb[28]
*60 io_oeb[29]
*61 io_oeb[2]
*62 io_oeb[30]
*63 io_oeb[31]
*64 io_oeb[32]
*65 io_oeb[33]
*66 io_oeb[34]
*67 io_oeb[35]
*68 io_oeb[36]
*69 io_oeb[37]
*70 io_oeb[3]
*71 io_oeb[4]
*72 io_oeb[5]
*73 io_oeb[6]
*74 io_oeb[7]
*75 io_oeb[8]
*76 io_oeb[9]
*77 io_out[0]
*78 io_out[10]
*79 io_out[11]
*80 io_out[12]
*81 io_out[13]
*82 io_out[14]
*83 io_out[15]
*84 io_out[16]
*85 io_out[17]
*86 io_out[18]
*87 io_out[19]
*88 io_out[1]
*89 io_out[20]
*90 io_out[21]
*91 io_out[22]
*92 io_out[23]
*93 io_out[24]
*94 io_out[25]
*95 io_out[26]
*96 io_out[27]
*97 io_out[28]
*98 io_out[29]
*99 io_out[2]
*100 io_out[30]
*101 io_out[31]
*102 io_out[32]
*103 io_out[33]
*104 io_out[34]
*105 io_out[35]
*106 io_out[36]
*107 io_out[37]
*108 io_out[3]
*109 io_out[4]
*110 io_out[5]
*111 io_out[6]
*112 io_out[7]
*113 io_out[8]
*114 io_out[9]
*115 la_data_in[0]
*116 la_data_in[10]
*117 la_data_in[11]
*118 la_data_in[12]
*119 la_data_in[13]
*120 la_data_in[14]
*121 la_data_in[15]
*122 la_data_in[16]
*123 la_data_in[17]
*124 la_data_in[18]
*125 la_data_in[19]
*126 la_data_in[1]
*127 la_data_in[20]
*128 la_data_in[21]
*129 la_data_in[22]
*130 la_data_in[23]
*131 la_data_in[24]
*132 la_data_in[25]
*133 la_data_in[26]
*134 la_data_in[27]
*135 la_data_in[28]
*136 la_data_in[29]
*137 la_data_in[2]
*138 la_data_in[30]
*139 la_data_in[31]
*140 la_data_in[32]
*141 la_data_in[33]
*142 la_data_in[34]
*143 la_data_in[35]
*144 la_data_in[36]
*145 la_data_in[37]
*146 la_data_in[38]
*147 la_data_in[39]
*148 la_data_in[3]
*149 la_data_in[40]
*150 la_data_in[41]
*151 la_data_in[42]
*152 la_data_in[43]
*153 la_data_in[44]
*154 la_data_in[45]
*155 la_data_in[46]
*156 la_data_in[47]
*157 la_data_in[48]
*158 la_data_in[49]
*159 la_data_in[4]
*160 la_data_in[50]
*161 la_data_in[51]
*162 la_data_in[52]
*163 la_data_in[53]
*164 la_data_in[54]
*165 la_data_in[55]
*166 la_data_in[56]
*167 la_data_in[57]
*168 la_data_in[58]
*169 la_data_in[59]
*170 la_data_in[5]
*171 la_data_in[60]
*172 la_data_in[61]
*173 la_data_in[62]
*174 la_data_in[63]
*175 la_data_in[6]
*176 la_data_in[7]
*177 la_data_in[8]
*178 la_data_in[9]
*179 la_data_out[0]
*180 la_data_out[10]
*181 la_data_out[11]
*182 la_data_out[12]
*183 la_data_out[13]
*184 la_data_out[14]
*185 la_data_out[15]
*186 la_data_out[16]
*187 la_data_out[17]
*188 la_data_out[18]
*189 la_data_out[19]
*190 la_data_out[1]
*191 la_data_out[20]
*192 la_data_out[21]
*193 la_data_out[22]
*194 la_data_out[23]
*195 la_data_out[24]
*196 la_data_out[25]
*197 la_data_out[26]
*198 la_data_out[27]
*199 la_data_out[28]
*200 la_data_out[29]
*201 la_data_out[2]
*202 la_data_out[30]
*203 la_data_out[31]
*204 la_data_out[32]
*205 la_data_out[33]
*206 la_data_out[34]
*207 la_data_out[35]
*208 la_data_out[36]
*209 la_data_out[37]
*210 la_data_out[38]
*211 la_data_out[39]
*212 la_data_out[3]
*213 la_data_out[40]
*214 la_data_out[41]
*215 la_data_out[42]
*216 la_data_out[43]
*217 la_data_out[44]
*218 la_data_out[45]
*219 la_data_out[46]
*220 la_data_out[47]
*221 la_data_out[48]
*222 la_data_out[49]
*223 la_data_out[4]
*224 la_data_out[50]
*225 la_data_out[51]
*226 la_data_out[52]
*227 la_data_out[53]
*228 la_data_out[54]
*229 la_data_out[55]
*230 la_data_out[56]
*231 la_data_out[57]
*232 la_data_out[58]
*233 la_data_out[59]
*234 la_data_out[5]
*235 la_data_out[60]
*236 la_data_out[61]
*237 la_data_out[62]
*238 la_data_out[63]
*239 la_data_out[6]
*240 la_data_out[7]
*241 la_data_out[8]
*242 la_data_out[9]
*243 la_oenb[0]
*244 la_oenb[10]
*245 la_oenb[11]
*246 la_oenb[12]
*247 la_oenb[13]
*248 la_oenb[14]
*249 la_oenb[15]
*250 la_oenb[16]
*251 la_oenb[17]
*252 la_oenb[18]
*253 la_oenb[19]
*254 la_oenb[1]
*255 la_oenb[20]
*256 la_oenb[21]
*257 la_oenb[22]
*258 la_oenb[23]
*259 la_oenb[24]
*260 la_oenb[25]
*261 la_oenb[26]
*262 la_oenb[27]
*263 la_oenb[28]
*264 la_oenb[29]
*265 la_oenb[2]
*266 la_oenb[30]
*267 la_oenb[31]
*268 la_oenb[32]
*269 la_oenb[33]
*270 la_oenb[34]
*271 la_oenb[35]
*272 la_oenb[36]
*273 la_oenb[37]
*274 la_oenb[38]
*275 la_oenb[39]
*276 la_oenb[3]
*277 la_oenb[40]
*278 la_oenb[41]
*279 la_oenb[42]
*280 la_oenb[43]
*281 la_oenb[44]
*282 la_oenb[45]
*283 la_oenb[46]
*284 la_oenb[47]
*285 la_oenb[48]
*286 la_oenb[49]
*287 la_oenb[4]
*288 la_oenb[50]
*289 la_oenb[51]
*290 la_oenb[52]
*291 la_oenb[53]
*292 la_oenb[54]
*293 la_oenb[55]
*294 la_oenb[56]
*295 la_oenb[57]
*296 la_oenb[58]
*297 la_oenb[59]
*298 la_oenb[5]
*299 la_oenb[60]
*300 la_oenb[61]
*301 la_oenb[62]
*302 la_oenb[63]
*303 la_oenb[6]
*304 la_oenb[7]
*305 la_oenb[8]
*306 la_oenb[9]
*307 user_clock2
*308 user_irq[0]
*309 user_irq[1]
*310 user_irq[2]
*313 wb_clk_i
*314 wb_rst_i
*315 wbs_ack_o
*316 wbs_adr_i[0]
*317 wbs_adr_i[10]
*318 wbs_adr_i[11]
*319 wbs_adr_i[12]
*320 wbs_adr_i[13]
*321 wbs_adr_i[14]
*322 wbs_adr_i[15]
*323 wbs_adr_i[16]
*324 wbs_adr_i[17]
*325 wbs_adr_i[18]
*326 wbs_adr_i[19]
*327 wbs_adr_i[1]
*328 wbs_adr_i[20]
*329 wbs_adr_i[21]
*330 wbs_adr_i[22]
*331 wbs_adr_i[23]
*332 wbs_adr_i[24]
*333 wbs_adr_i[25]
*334 wbs_adr_i[26]
*335 wbs_adr_i[27]
*336 wbs_adr_i[28]
*337 wbs_adr_i[29]
*338 wbs_adr_i[2]
*339 wbs_adr_i[30]
*340 wbs_adr_i[31]
*341 wbs_adr_i[3]
*342 wbs_adr_i[4]
*343 wbs_adr_i[5]
*344 wbs_adr_i[6]
*345 wbs_adr_i[7]
*346 wbs_adr_i[8]
*347 wbs_adr_i[9]
*348 wbs_cyc_i
*349 wbs_dat_i[0]
*350 wbs_dat_i[10]
*351 wbs_dat_i[11]
*352 wbs_dat_i[12]
*353 wbs_dat_i[13]
*354 wbs_dat_i[14]
*355 wbs_dat_i[15]
*356 wbs_dat_i[16]
*357 wbs_dat_i[17]
*358 wbs_dat_i[18]
*359 wbs_dat_i[19]
*360 wbs_dat_i[1]
*361 wbs_dat_i[20]
*362 wbs_dat_i[21]
*363 wbs_dat_i[22]
*364 wbs_dat_i[23]
*365 wbs_dat_i[24]
*366 wbs_dat_i[25]
*367 wbs_dat_i[26]
*368 wbs_dat_i[27]
*369 wbs_dat_i[28]
*370 wbs_dat_i[29]
*371 wbs_dat_i[2]
*372 wbs_dat_i[30]
*373 wbs_dat_i[31]
*374 wbs_dat_i[3]
*375 wbs_dat_i[4]
*376 wbs_dat_i[5]
*377 wbs_dat_i[6]
*378 wbs_dat_i[7]
*379 wbs_dat_i[8]
*380 wbs_dat_i[9]
*381 wbs_dat_o[0]
*382 wbs_dat_o[10]
*383 wbs_dat_o[11]
*384 wbs_dat_o[12]
*385 wbs_dat_o[13]
*386 wbs_dat_o[14]
*387 wbs_dat_o[15]
*388 wbs_dat_o[16]
*389 wbs_dat_o[17]
*390 wbs_dat_o[18]
*391 wbs_dat_o[19]
*392 wbs_dat_o[1]
*393 wbs_dat_o[20]
*394 wbs_dat_o[21]
*395 wbs_dat_o[22]
*396 wbs_dat_o[23]
*397 wbs_dat_o[24]
*398 wbs_dat_o[25]
*399 wbs_dat_o[26]
*400 wbs_dat_o[27]
*401 wbs_dat_o[28]
*402 wbs_dat_o[29]
*403 wbs_dat_o[2]
*404 wbs_dat_o[30]
*405 wbs_dat_o[31]
*406 wbs_dat_o[3]
*407 wbs_dat_o[4]
*408 wbs_dat_o[5]
*409 wbs_dat_o[6]
*410 wbs_dat_o[7]
*411 wbs_dat_o[8]
*412 wbs_dat_o[9]
*413 wbs_sel_i[0]
*414 wbs_sel_i[1]
*415 wbs_sel_i[2]
*416 wbs_sel_i[3]
*417 wbs_stb_i
*418 wbs_we_i
*419 mprj

*PORTS
io_in[0] I
io_in[10] I
io_in[11] I
io_in[12] I
io_in[13] I
io_in[14] I
io_in[15] I
io_in[16] I
io_in[17] I
io_in[18] I
io_in[19] I
io_in[1] I
io_in[20] I
io_in[21] I
io_in[22] I
io_in[23] I
io_in[24] I
io_in[25] I
io_in[26] I
io_in[27] I
io_in[28] I
io_in[29] I
io_in[2] I
io_in[30] I
io_in[31] I
io_in[32] I
io_in[33] I
io_in[34] I
io_in[35] I
io_in[36] I
io_in[37] I
io_in[3] I
io_in[4] I
io_in[5] I
io_in[6] I
io_in[7] I
io_in[8] I
io_in[9] I
io_oeb[0] O
io_oeb[10] O
io_oeb[11] O
io_oeb[12] O
io_oeb[13] O
io_oeb[14] O
io_oeb[15] O
io_oeb[16] O
io_oeb[17] O
io_oeb[18] O
io_oeb[19] O
io_oeb[1] O
io_oeb[20] O
io_oeb[21] O
io_oeb[22] O
io_oeb[23] O
io_oeb[24] O
io_oeb[25] O
io_oeb[26] O
io_oeb[27] O
io_oeb[28] O
io_oeb[29] O
io_oeb[2] O
io_oeb[30] O
io_oeb[31] O
io_oeb[32] O
io_oeb[33] O
io_oeb[34] O
io_oeb[35] O
io_oeb[36] O
io_oeb[37] O
io_oeb[3] O
io_oeb[4] O
io_oeb[5] O
io_oeb[6] O
io_oeb[7] O
io_oeb[8] O
io_oeb[9] O
io_out[0] O
io_out[10] O
io_out[11] O
io_out[12] O
io_out[13] O
io_out[14] O
io_out[15] O
io_out[16] O
io_out[17] O
io_out[18] O
io_out[19] O
io_out[1] O
io_out[20] O
io_out[21] O
io_out[22] O
io_out[23] O
io_out[24] O
io_out[25] O
io_out[26] O
io_out[27] O
io_out[28] O
io_out[29] O
io_out[2] O
io_out[30] O
io_out[31] O
io_out[32] O
io_out[33] O
io_out[34] O
io_out[35] O
io_out[36] O
io_out[37] O
io_out[3] O
io_out[4] O
io_out[5] O
io_out[6] O
io_out[7] O
io_out[8] O
io_out[9] O
la_data_in[0] I
la_data_in[10] I
la_data_in[11] I
la_data_in[12] I
la_data_in[13] I
la_data_in[14] I
la_data_in[15] I
la_data_in[16] I
la_data_in[17] I
la_data_in[18] I
la_data_in[19] I
la_data_in[1] I
la_data_in[20] I
la_data_in[21] I
la_data_in[22] I
la_data_in[23] I
la_data_in[24] I
la_data_in[25] I
la_data_in[26] I
la_data_in[27] I
la_data_in[28] I
la_data_in[29] I
la_data_in[2] I
la_data_in[30] I
la_data_in[31] I
la_data_in[32] I
la_data_in[33] I
la_data_in[34] I
la_data_in[35] I
la_data_in[36] I
la_data_in[37] I
la_data_in[38] I
la_data_in[39] I
la_data_in[3] I
la_data_in[40] I
la_data_in[41] I
la_data_in[42] I
la_data_in[43] I
la_data_in[44] I
la_data_in[45] I
la_data_in[46] I
la_data_in[47] I
la_data_in[48] I
la_data_in[49] I
la_data_in[4] I
la_data_in[50] I
la_data_in[51] I
la_data_in[52] I
la_data_in[53] I
la_data_in[54] I
la_data_in[55] I
la_data_in[56] I
la_data_in[57] I
la_data_in[58] I
la_data_in[59] I
la_data_in[5] I
la_data_in[60] I
la_data_in[61] I
la_data_in[62] I
la_data_in[63] I
la_data_in[6] I
la_data_in[7] I
la_data_in[8] I
la_data_in[9] I
la_data_out[0] O
la_data_out[10] O
la_data_out[11] O
la_data_out[12] O
la_data_out[13] O
la_data_out[14] O
la_data_out[15] O
la_data_out[16] O
la_data_out[17] O
la_data_out[18] O
la_data_out[19] O
la_data_out[1] O
la_data_out[20] O
la_data_out[21] O
la_data_out[22] O
la_data_out[23] O
la_data_out[24] O
la_data_out[25] O
la_data_out[26] O
la_data_out[27] O
la_data_out[28] O
la_data_out[29] O
la_data_out[2] O
la_data_out[30] O
la_data_out[31] O
la_data_out[32] O
la_data_out[33] O
la_data_out[34] O
la_data_out[35] O
la_data_out[36] O
la_data_out[37] O
la_data_out[38] O
la_data_out[39] O
la_data_out[3] O
la_data_out[40] O
la_data_out[41] O
la_data_out[42] O
la_data_out[43] O
la_data_out[44] O
la_data_out[45] O
la_data_out[46] O
la_data_out[47] O
la_data_out[48] O
la_data_out[49] O
la_data_out[4] O
la_data_out[50] O
la_data_out[51] O
la_data_out[52] O
la_data_out[53] O
la_data_out[54] O
la_data_out[55] O
la_data_out[56] O
la_data_out[57] O
la_data_out[58] O
la_data_out[59] O
la_data_out[5] O
la_data_out[60] O
la_data_out[61] O
la_data_out[62] O
la_data_out[63] O
la_data_out[6] O
la_data_out[7] O
la_data_out[8] O
la_data_out[9] O
la_oenb[0] I
la_oenb[10] I
la_oenb[11] I
la_oenb[12] I
la_oenb[13] I
la_oenb[14] I
la_oenb[15] I
la_oenb[16] I
la_oenb[17] I
la_oenb[18] I
la_oenb[19] I
la_oenb[1] I
la_oenb[20] I
la_oenb[21] I
la_oenb[22] I
la_oenb[23] I
la_oenb[24] I
la_oenb[25] I
la_oenb[26] I
la_oenb[27] I
la_oenb[28] I
la_oenb[29] I
la_oenb[2] I
la_oenb[30] I
la_oenb[31] I
la_oenb[32] I
la_oenb[33] I
la_oenb[34] I
la_oenb[35] I
la_oenb[36] I
la_oenb[37] I
la_oenb[38] I
la_oenb[39] I
la_oenb[3] I
la_oenb[40] I
la_oenb[41] I
la_oenb[42] I
la_oenb[43] I
la_oenb[44] I
la_oenb[45] I
la_oenb[46] I
la_oenb[47] I
la_oenb[48] I
la_oenb[49] I
la_oenb[4] I
la_oenb[50] I
la_oenb[51] I
la_oenb[52] I
la_oenb[53] I
la_oenb[54] I
la_oenb[55] I
la_oenb[56] I
la_oenb[57] I
la_oenb[58] I
la_oenb[59] I
la_oenb[5] I
la_oenb[60] I
la_oenb[61] I
la_oenb[62] I
la_oenb[63] I
la_oenb[6] I
la_oenb[7] I
la_oenb[8] I
la_oenb[9] I
user_clock2 I
user_irq[0] O
user_irq[1] O
user_irq[2] O
wb_clk_i I
wb_rst_i I
wbs_ack_o O
wbs_adr_i[0] I
wbs_adr_i[10] I
wbs_adr_i[11] I
wbs_adr_i[12] I
wbs_adr_i[13] I
wbs_adr_i[14] I
wbs_adr_i[15] I
wbs_adr_i[16] I
wbs_adr_i[17] I
wbs_adr_i[18] I
wbs_adr_i[19] I
wbs_adr_i[1] I
wbs_adr_i[20] I
wbs_adr_i[21] I
wbs_adr_i[22] I
wbs_adr_i[23] I
wbs_adr_i[24] I
wbs_adr_i[25] I
wbs_adr_i[26] I
wbs_adr_i[27] I
wbs_adr_i[28] I
wbs_adr_i[29] I
wbs_adr_i[2] I
wbs_adr_i[30] I
wbs_adr_i[31] I
wbs_adr_i[3] I
wbs_adr_i[4] I
wbs_adr_i[5] I
wbs_adr_i[6] I
wbs_adr_i[7] I
wbs_adr_i[8] I
wbs_adr_i[9] I
wbs_cyc_i I
wbs_dat_i[0] I
wbs_dat_i[10] I
wbs_dat_i[11] I
wbs_dat_i[12] I
wbs_dat_i[13] I
wbs_dat_i[14] I
wbs_dat_i[15] I
wbs_dat_i[16] I
wbs_dat_i[17] I
wbs_dat_i[18] I
wbs_dat_i[19] I
wbs_dat_i[1] I
wbs_dat_i[20] I
wbs_dat_i[21] I
wbs_dat_i[22] I
wbs_dat_i[23] I
wbs_dat_i[24] I
wbs_dat_i[25] I
wbs_dat_i[26] I
wbs_dat_i[27] I
wbs_dat_i[28] I
wbs_dat_i[29] I
wbs_dat_i[2] I
wbs_dat_i[30] I
wbs_dat_i[31] I
wbs_dat_i[3] I
wbs_dat_i[4] I
wbs_dat_i[5] I
wbs_dat_i[6] I
wbs_dat_i[7] I
wbs_dat_i[8] I
wbs_dat_i[9] I
wbs_dat_o[0] O
wbs_dat_o[10] O
wbs_dat_o[11] O
wbs_dat_o[12] O
wbs_dat_o[13] O
wbs_dat_o[14] O
wbs_dat_o[15] O
wbs_dat_o[16] O
wbs_dat_o[17] O
wbs_dat_o[18] O
wbs_dat_o[19] O
wbs_dat_o[1] O
wbs_dat_o[20] O
wbs_dat_o[21] O
wbs_dat_o[22] O
wbs_dat_o[23] O
wbs_dat_o[24] O
wbs_dat_o[25] O
wbs_dat_o[26] O
wbs_dat_o[27] O
wbs_dat_o[28] O
wbs_dat_o[29] O
wbs_dat_o[2] O
wbs_dat_o[30] O
wbs_dat_o[31] O
wbs_dat_o[3] O
wbs_dat_o[4] O
wbs_dat_o[5] O
wbs_dat_o[6] O
wbs_dat_o[7] O
wbs_dat_o[8] O
wbs_dat_o[9] O
wbs_sel_i[0] I
wbs_sel_i[1] I
wbs_sel_i[2] I
wbs_sel_i[3] I
wbs_stb_i I
wbs_we_i I

*D_NET *1 0.0122264
*CONN
*P io_in[0] I
*I *419:io_in[0] I *D tjrpu
*CAP
1 io_in[0] 0.00202992
2 *419:io_in[0] 0.0040833
3 *1:11 0.00611322
*RES
1 io_in[0] *1:11 25.172 
2 *1:11 *419:io_in[0] 36.036 
*END

*D_NET *12 0.0135424
*CONN
*P io_in[1] I
*I *419:io_in[1] I *D tjrpu
*CAP
1 io_in[1] 0.0035167
2 *419:io_in[1] 0.00325451
3 *12:11 0.00677121
*RES
1 io_in[1] *12:11 38.9 
2 *12:11 *419:io_in[1] 29.796 
*END

*D_NET *23 0.015398
*CONN
*P io_in[2] I
*I *419:io_in[2] I *D tjrpu
*CAP
1 io_in[2] 0.00439321
2 *419:io_in[2] 0.0033058
3 *23:7 0.00769901
*RES
1 io_in[2] *23:7 42.2 
2 *23:7 *419:io_in[2] 34.4 
*END

*D_NET *24 0.0114143
*CONN
*P io_in[30] I
*I *419:io_in[8] I *D tjrpu
*CAP
1 io_in[30] 0.00440942
2 *419:io_in[8] 0.00129771
3 *24:11 0.00570713
*RES
1 io_in[30] *24:11 46.804 
2 *24:11 *419:io_in[8] 8.372 
*END

*D_NET *25 0.0104617
*CONN
*P io_in[31] I
*I *419:io_in[9] I *D tjrpu
*CAP
1 io_in[31] 0.00415421
2 *419:io_in[9] 0.00107662
3 *25:11 0.00523083
*RES
1 io_in[31] *25:11 44.308 
2 *25:11 *419:io_in[9] 8.372 
*END

*D_NET *26 0.00973132
*CONN
*P io_in[32] I
*I *419:io_in[10] I *D tjrpu
*CAP
1 io_in[32] 0.00378904
2 *419:io_in[10] 0.00107662
3 *26:11 0.00486566
*RES
1 io_in[32] *26:11 42.02 
2 *26:11 *419:io_in[10] 8.372 
*END

*D_NET *27 0.0106253
*CONN
*P io_in[33] I
*I *419:io_in[11] I *D tjrpu
*CAP
1 io_in[33] 0.00531263
2 *419:io_in[11] 0.00531263
*RES
1 io_in[33] *419:io_in[11] 47.688 
*END

*D_NET *28 0.00941976
*CONN
*P io_in[34] I
*I *419:io_in[12] I *D tjrpu
*CAP
1 io_in[34] 0.00470988
2 *419:io_in[12] 0.00470988
*RES
1 io_in[34] *419:io_in[12] 45.192 
*END

*D_NET *29 0.00790246
*CONN
*P io_in[35] I
*I *419:io_in[13] I *D tjrpu
*CAP
1 io_in[35] 0.00395123
2 *419:io_in[13] 0.00395123
*RES
1 io_in[35] *419:io_in[13] 42.696 
*END

*D_NET *30 0.00763141
*CONN
*P io_in[36] I
*I *419:io_in[14] I *D tjrpu
*CAP
1 io_in[36] 0.0038157
2 *419:io_in[14] 0.0038157
*RES
1 io_in[36] *419:io_in[14] 40.2 
*END

*D_NET *31 0.00710219
*CONN
*P io_in[37] I
*I *419:io_in[15] I *D tjrpu
*CAP
1 io_in[37] 0.0035511
2 *419:io_in[15] 0.0035511
*RES
1 io_in[37] *419:io_in[15] 37.912 
*END

*D_NET *32 0.0203114
*CONN
*P io_in[3] I
*I *419:io_in[3] I *D tjrpu
*CAP
1 io_in[3] 0.0043706
2 *419:io_in[3] 0.00373459
3 *32:7 0.00810519
4 *419:io_in[3] *61:11 0.00154959
5 *419:io_in[3] *108:11 0.00255142
*RES
1 io_in[3] *32:7 41.992 
2 *32:7 *419:io_in[3] 42.096 
*END

*D_NET *33 0.0263096
*CONN
*P io_in[4] I
*I *419:io_in[4] I *D tjrpu
*CAP
1 io_in[4] 0.00441472
2 *419:io_in[4] 0.00372508
3 *33:7 0.0081398
4 *419:io_in[4] *70:9 0.00450245
5 *419:io_in[4] *109:11 0.00552757
*RES
1 io_in[4] *33:7 42.2 
2 *33:7 *419:io_in[4] 49.376 
*END

*D_NET *34 0.0266944
*CONN
*P io_in[5] I
*I *419:io_in[5] I *D tjrpu
*CAP
1 io_in[5] 0.0043706
2 *419:io_in[5] 0.000745196
3 *34:9 0.00397885
4 *34:7 0.00760425
5 *34:9 *71:11 0.00753332
6 *34:9 *110:9 0.00246215
*RES
1 io_in[5] *34:7 41.992 
2 *34:7 *34:9 45.864 
3 *34:9 *419:io_in[5] 11.208 
*END

*D_NET *35 0.0323075
*CONN
*P io_in[6] I
*I *419:io_in[6] I *D tjrpu
*CAP
1 io_in[6] 0.00434177
2 *419:io_in[6] 0.000810834
3 *35:9 0.0038495
4 *35:7 0.00738044
5 *35:7 *110:7 2.6362e-05
6 *35:9 *72:9 0.00434222
7 *35:9 *111:9 0.0115564
*RES
1 io_in[6] *35:7 41.784 
2 *35:7 *35:9 53.352 
3 *35:9 *419:io_in[6] 11.416 
*END

*D_NET *36 0.0378049
*CONN
*P io_in[7] I
*I *419:io_in[7] I *D tjrpu
*CAP
1 io_in[7] 0.004348
2 *419:io_in[7] 0.000810834
3 *36:9 0.0044083
4 *36:7 0.00794546
5 *36:9 *73:9 0.00311133
6 *36:9 *111:9 0.0027294
7 *36:9 *112:9 0.0144516
*RES
1 io_in[7] *36:7 41.784 
2 *36:7 *36:9 60.84 
3 *36:9 *419:io_in[7] 11.416 
*END

*D_NET *39 0.0132211
*CONN
*P io_oeb[0] O
*I *419:io_oeb[0] O *D tjrpu
*CAP
1 io_oeb[0] 0.00186128
2 *419:io_oeb[0] 0.00474926
3 *39:9 0.00661054
*RES
1 *419:io_oeb[0] *39:9 47.296 
2 *39:9 io_oeb[0] 18.904 
*END

*D_NET *50 0.015127
*CONN
*P io_oeb[1] O
*I *419:io_oeb[1] O *D tjrpu
*CAP
1 io_oeb[1] 0.00439321
2 *419:io_oeb[1] 0.00317028
3 *50:11 0.00756348
*RES
1 *419:io_oeb[1] *50:11 36.404 
2 *50:11 io_oeb[1] 37.7 
*END

*D_NET *61 0.0178031
*CONN
*P io_oeb[2] O
*I *419:io_oeb[2] O *D tjrpu
*CAP
1 io_oeb[2] 0.00441048
2 *419:io_oeb[2] 0.00359976
3 *61:11 0.00801024
4 io_oeb[2] *99:11 8.9253e-06
5 *61:11 *99:11 0.00022407
6 *419:io_in[3] *61:11 0.00154959
*RES
1 *419:io_oeb[2] *61:11 43.892 
2 *61:11 io_oeb[2] 37.7 
*END

*D_NET *62 0.0106358
*CONN
*P io_oeb[30] O
*I *419:io_oeb[8] O *D tjrpu
*CAP
1 io_oeb[30] 0.00159768
2 *419:io_oeb[8] 0.00372023
3 *62:11 0.00531791
*RES
1 *419:io_oeb[8] *62:11 40.148 
2 *62:11 io_oeb[30] 13.364 
*END

*D_NET *63 0.0114609
*CONN
*P io_oeb[31] O
*I *419:io_oeb[9] O *D tjrpu
*CAP
1 io_oeb[31] 0.0013264
2 *419:io_oeb[9] 0.00440403
3 *63:11 0.00573043
*RES
1 *419:io_oeb[9] *63:11 40.148 
2 *63:11 io_oeb[31] 10.868 
*END

*D_NET *64 0.00985318
*CONN
*P io_oeb[32] O
*I *419:io_oeb[10] O *D tjrpu
*CAP
1 io_oeb[32] 0.00492659
2 *419:io_oeb[10] 0.00492659
*RES
1 *419:io_oeb[10] io_oeb[32] 48.52 
*END

*D_NET *65 0.00909513
*CONN
*P io_oeb[33] O
*I *419:io_oeb[11] O *D tjrpu
*CAP
1 io_oeb[33] 0.00454757
2 *419:io_oeb[11] 0.00454757
*RES
1 *419:io_oeb[11] io_oeb[33] 46.232 
*END

*D_NET *66 0.00910063
*CONN
*P io_oeb[34] O
*I *419:io_oeb[12] O *D tjrpu
*CAP
1 io_oeb[34] 0.00455031
2 *419:io_oeb[12] 0.00455031
*RES
1 *419:io_oeb[12] io_oeb[34] 43.528 
*END

*D_NET *67 0.00775527
*CONN
*P io_oeb[35] O
*I *419:io_oeb[13] O *D tjrpu
*CAP
1 io_oeb[35] 0.00387764
2 *419:io_oeb[13] 0.00387764
*RES
1 *419:io_oeb[13] io_oeb[35] 41.032 
*END

*D_NET *68 0.00704849
*CONN
*P io_oeb[36] O
*I *419:io_oeb[14] O *D tjrpu
*CAP
1 io_oeb[36] 0.00352425
2 *419:io_oeb[14] 0.00352425
*RES
1 *419:io_oeb[14] io_oeb[36] 38.536 
*END

*D_NET *69 0.00676063
*CONN
*P io_oeb[37] O
*I *419:io_oeb[15] O *D tjrpu
*CAP
1 io_oeb[37] 0.00338032
2 *419:io_oeb[15] 0.00338032
*RES
1 *419:io_oeb[15] io_oeb[37] 36.04 
*END

*D_NET *70 0.0244891
*CONN
*P io_oeb[3] O
*I *419:io_oeb[3] O *D tjrpu
*CAP
1 io_oeb[3] 0.0043706
2 *419:io_oeb[3] 0.00387858
3 *70:9 0.00824918
4 *70:9 *108:11 0.00348826
5 *419:io_in[4] *70:9 0.00450245
*RES
1 *419:io_oeb[3] *70:9 47.088 
2 *70:9 io_oeb[3] 41.992 
*END

*D_NET *71 0.0302679
*CONN
*P io_oeb[4] O
*I *419:io_oeb[4] O *D tjrpu
*CAP
1 io_oeb[4] 0.00441472
2 *419:io_oeb[4] 0.000722589
3 *71:11 0.00734643
4 *71:7 0.0036543
5 *71:11 *109:11 0.00659649
6 *34:9 *71:11 0.00753332
*RES
1 *419:io_oeb[4] *71:7 11 
2 *71:7 *71:11 47.868 
3 *71:11 io_oeb[4] 37.7 
*END

*D_NET *72 0.0242972
*CONN
*P io_oeb[5] O
*I *419:io_oeb[5] O *D tjrpu
*CAP
1 io_oeb[5] 0.00441471
2 *419:io_oeb[5] 0.000722589
3 *72:9 0.00791682
4 *72:7 0.00422471
5 *72:9 *110:9 0.00196931
6 *72:9 *111:9 0.000706869
7 *35:9 *72:9 0.00434222
*RES
1 *419:io_oeb[5] *72:7 11 
2 *72:7 *72:9 50.648 
3 *72:9 io_oeb[5] 42.2 
*END

*D_NET *73 0.0365373
*CONN
*P io_oeb[6] O
*I *419:io_oeb[6] O *D tjrpu
*CAP
1 io_oeb[6] 0.00443624
2 *419:io_oeb[6] 0.000722589
3 *73:9 0.00790632
4 *73:7 0.00419266
5 *73:9 *111:9 0.0125006
6 *73:9 *112:9 0.00366761
7 *36:9 *73:9 0.00311133
*RES
1 *419:io_oeb[6] *73:7 11 
2 *73:7 *73:9 58.344 
3 *73:9 io_oeb[6] 42.2 
*END

*D_NET *74 0.0368734
*CONN
*P io_oeb[7] O
*I *419:io_oeb[7] O *D tjrpu
*CAP
1 io_oeb[7] 0.00443624
2 *419:io_oeb[7] 0.000930078
3 *74:9 0.00973946
4 *74:7 0.0062333
5 *74:9 *112:9 0.0155343
*RES
1 *419:io_oeb[7] *74:7 11 
2 *74:7 *74:9 65.832 
3 *74:9 io_oeb[7] 42.2 
*END

*D_NET *77 0.0126986
*CONN
*P io_out[0] O
*I *419:io_out[0] O *D tjrpu
*CAP
1 io_out[0] 0.00186128
2 *419:io_out[0] 0.00448803
3 *77:11 0.00634931
*RES
1 *419:io_out[0] *77:11 49.3 
2 *77:11 io_out[0] 14.404 
*END

*D_NET *88 0.0143163
*CONN
*P io_out[1] O
*I *419:io_out[1] O *D tjrpu
*CAP
1 io_out[1] 0.00217777
2 *419:io_out[1] 0.00498038
3 *88:9 0.00715815
*RES
1 *419:io_out[1] *88:9 49.376 
2 *88:9 io_out[1] 21.816 
*END

*D_NET *99 0.016344
*CONN
*P io_out[2] O
*I *419:io_out[2] O *D tjrpu
*CAP
1 io_out[2] 0.004348
2 *419:io_out[2] 0.00370751
3 *99:11 0.00805551
4 io_oeb[2] *99:11 8.9253e-06
5 *61:11 *99:11 0.00022407
*RES
1 *419:io_out[2] *99:11 41.812 
2 *99:11 io_out[2] 37.284 
*END

*D_NET *100 0.0106021
*CONN
*P io_out[30] O
*I *419:io_out[8] O *D tjrpu
*CAP
1 io_out[30] 0.00159768
2 *419:io_out[8] 0.00370337
3 *100:11 0.00530105
*RES
1 *419:io_out[8] *100:11 41.188 
2 *100:11 io_out[30] 13.364 
*END

*D_NET *101 0.0100864
*CONN
*P io_out[31] O
*I *419:io_out[9] O *D tjrpu
*CAP
1 io_out[31] 0.00159768
2 *419:io_out[9] 0.00344551
3 *101:11 0.00504319
*RES
1 *419:io_out[9] *101:11 38.484 
2 *101:11 io_out[31] 13.364 
*END

*D_NET *102 0.0118445
*CONN
*P io_out[32] O
*I *419:io_out[10] O *D tjrpu
*CAP
1 io_out[32] 0.00592225
2 *419:io_out[10] 0.00592225
*RES
1 *419:io_out[10] io_out[32] 49.352 
*END

*D_NET *103 0.00879004
*CONN
*P io_out[33] O
*I *419:io_out[11] O *D tjrpu
*CAP
1 io_out[33] 0.00439502
2 *419:io_out[11] 0.00439502
*RES
1 *419:io_out[11] io_out[33] 46.856 
*END

*D_NET *104 0.00850218
*CONN
*P io_out[34] O
*I *419:io_out[12] O *D tjrpu
*CAP
1 io_out[34] 0.00425109
2 *419:io_out[12] 0.00425109
*RES
1 *419:io_out[12] io_out[34] 44.36 
*END

*D_NET *105 0.00797297
*CONN
*P io_out[35] O
*I *419:io_out[13] O *D tjrpu
*CAP
1 io_out[35] 0.00398648
2 *419:io_out[13] 0.00398648
*RES
1 *419:io_out[13] io_out[35] 42.072 
*END

*D_NET *106 0.00720584
*CONN
*P io_out[36] O
*I *419:io_out[14] O *D tjrpu
*CAP
1 io_out[36] 0.00360292
2 *419:io_out[14] 0.00360292
*RES
1 *419:io_out[14] io_out[36] 39.368 
*END

*D_NET *107 0.00670018
*CONN
*P io_out[37] O
*I *419:io_out[15] O *D tjrpu
*CAP
1 io_out[37] 0.00335009
2 *419:io_out[15] 0.00335009
*RES
1 *419:io_out[15] io_out[37] 36.872 
*END

*D_NET *108 0.0221748
*CONN
*P io_out[3] O
*I *419:io_out[3] O *D tjrpu
*CAP
1 io_out[3] 0.00441472
2 *419:io_out[3] 0.00365284
3 *108:11 0.00806757
4 *419:io_in[3] *108:11 0.00255142
5 *70:9 *108:11 0.00348826
*RES
1 *419:io_out[3] *108:11 48.884 
2 *108:11 io_out[3] 37.7 
*END

*D_NET *109 0.0282766
*CONN
*P io_out[4] O
*I *419:io_out[4] O *D tjrpu
*CAP
1 io_out[4] 0.0043706
2 *419:io_out[4] 0.000766711
3 *109:11 0.00730955
4 *109:7 0.00370566
5 *419:io_in[4] *109:11 0.00552757
6 *71:11 *109:11 0.00659649
*RES
1 *419:io_out[4] *109:7 11.208 
2 *109:7 *109:11 45.372 
3 *109:11 io_out[4] 37.492 
*END

*D_NET *110 0.022835
*CONN
*P io_out[5] O
*I *419:io_out[5] O *D tjrpu
*CAP
1 io_out[5] 0.00430278
2 *419:io_out[5] 0.00105022
3 *110:9 0.00813835
4 *110:7 0.00488579
5 *34:9 *110:9 0.00246215
6 *35:7 *110:7 2.6362e-05
7 *72:9 *110:9 0.00196931
*RES
1 *419:io_out[5] *110:7 11.832 
2 *110:7 *110:9 48.36 
3 *110:9 io_out[5] 41.368 
*END

*D_NET *111 0.0428912
*CONN
*P io_out[6] O
*I *419:io_out[6] O *D tjrpu
*CAP
1 io_out[6] 0.00439212
2 *419:io_out[6] 0.000766711
3 *111:9 0.0069323
4 *111:7 0.00330689
5 *35:9 *111:9 0.0115564
6 *36:9 *111:9 0.0027294
7 *72:9 *111:9 0.000706869
8 *73:9 *111:9 0.0125006
*RES
1 *419:io_out[6] *111:7 11.208 
2 *111:7 *111:9 55.848 
3 *111:9 io_out[6] 41.992 
*END

*D_NET *112 0.051216
*CONN
*P io_out[7] O
*I *419:io_out[7] O *D tjrpu
*CAP
1 io_out[7] 0.00551802
2 *419:io_out[7] 0.000766711
3 *112:9 0.0080145
4 *112:7 0.0032632
5 *36:9 *112:9 0.0144516
6 *73:9 *112:9 0.00366761
7 *74:9 *112:9 0.0155343
*RES
1 *419:io_out[7] *112:7 11.208 
2 *112:7 *112:9 63.336 
3 *112:9 io_out[7] 41.992 
*END

*D_NET *115 0.00172643
*CONN
*P la_data_in[0] I
*I *419:la_data_in[0] I *D tjrpu
*CAP
1 la_data_in[0] 0.000863217
2 *419:la_data_in[0] 0.000863217
*RES
1 la_data_in[0] *419:la_data_in[0] 8.008 
*END

*D_NET *116 0.00509684
*CONN
*P la_data_in[10] I
*I *419:la_data_in[10] I *D tjrpu
*CAP
1 la_data_in[10] 0.00116311
2 *419:la_data_in[10] 0.00116311
3 *419:la_data_in[10] la_data_out[9] 0.000527316
4 *419:la_data_in[10] *419:la_oenb[10] 0.000301087
5 *419:la_data_in[10] *419:la_oenb[9] 0.00194221
*RES
1 la_data_in[10] *419:la_data_in[10] 22.52 
*END

*D_NET *117 0.00583765
*CONN
*P la_data_in[11] I
*I *419:la_data_in[11] I *D tjrpu
*CAP
1 la_data_in[11] 0.00104894
2 *419:la_data_in[11] 0.00104894
3 *419:la_data_in[11] la_data_out[10] 0
4 *419:la_data_in[11] la_data_out[11] 0.00058336
5 *419:la_data_in[11] *419:la_data_in[12] 1.19584e-05
6 *419:la_data_in[11] *419:la_oenb[10] 0.00219278
7 *419:la_data_in[11] *419:la_oenb[11] 0.000951689
*RES
1 la_data_in[11] *419:la_data_in[11] 23.144 
*END

*D_NET *118 0.00430343
*CONN
*P la_data_in[12] I
*I *419:la_data_in[12] I *D tjrpu
*CAP
1 la_data_in[12] 0.00131835
2 *419:la_data_in[12] 0.00131835
3 *419:la_data_in[12] la_data_out[12] 0
4 *419:la_data_in[12] *419:la_data_in[13] 9.75546e-05
5 *419:la_data_in[12] *419:la_oenb[11] 0.00104618
6 *419:la_data_in[12] *419:la_oenb[12] 0.000511034
7 *419:la_data_in[11] *419:la_data_in[12] 1.19584e-05
*RES
1 la_data_in[12] *419:la_data_in[12] 23.768 
*END

*D_NET *119 0.00799816
*CONN
*P la_data_in[13] I
*I *419:la_data_in[13] I *D tjrpu
*CAP
1 la_data_in[13] 0.000901753
2 *419:la_data_in[13] 0.000901753
3 *419:la_data_in[13] la_data_out[13] 0.00276863
4 *419:la_data_in[13] *419:la_oenb[12] 0.00275687
5 *419:la_data_in[13] *419:la_oenb[13] 0.000571606
6 *419:la_data_in[12] *419:la_data_in[13] 9.75546e-05
*RES
1 la_data_in[13] *419:la_data_in[13] 24.392 
*END

*D_NET *120 0.00608971
*CONN
*P la_data_in[14] I
*I *419:la_data_in[14] I *D tjrpu
*CAP
1 la_data_in[14] 0.00138323
2 *419:la_data_in[14] 0.00138323
3 *419:la_data_in[14] la_data_out[14] 0
4 *419:la_data_in[14] *419:la_data_in[15] 0.000367033
5 *419:la_data_in[14] *419:la_oenb[13] 0.00295622
*RES
1 la_data_in[14] *419:la_data_in[14] 25.016 
*END

*D_NET *121 0.00487528
*CONN
*P la_data_in[15] I
*I *419:la_data_in[15] I *D tjrpu
*CAP
1 la_data_in[15] 0.00165883
2 *419:la_data_in[15] 0.00165883
3 *419:la_data_in[15] la_data_out[14] 0
4 *419:la_data_in[15] la_data_out[15] 0.000374931
5 *419:la_data_in[15] la_data_out[16] 0
6 *419:la_data_in[15] *419:la_data_in[16] 0
7 *419:la_data_in[15] *419:la_oenb[15] 0.000815666
8 *419:la_data_in[14] *419:la_data_in[15] 0.000367033
*RES
1 la_data_in[15] *419:la_data_in[15] 25.64 
*END

*D_NET *122 0.00668962
*CONN
*P la_data_in[16] I
*I *419:la_data_in[16] I *D tjrpu
*CAP
1 la_data_in[16] 0.00161405
2 *419:la_data_in[16] 0.00161405
3 *419:la_data_in[16] la_data_out[15] 0.00200518
4 *419:la_data_in[16] la_data_out[16] 0
5 *419:la_data_in[16] la_data_out[17] 6.8199e-07
6 *419:la_data_in[16] *419:la_data_in[17] 0.000859359
7 *419:la_data_in[16] *419:la_oenb[14] 0
8 *419:la_data_in[16] *419:la_oenb[15] 0.000596312
9 *419:la_data_in[16] *419:la_oenb[16] 0
10 *419:la_data_in[15] *419:la_data_in[16] 0
*RES
1 la_data_in[16] *419:la_data_in[16] 26.264 
*END

*D_NET *123 0.00759923
*CONN
*P la_data_in[17] I
*I *419:la_data_in[17] I *D tjrpu
*CAP
1 la_data_in[17] 0.00125598
2 *419:la_data_in[17] 0.00125598
3 *419:la_data_in[17] la_data_out[17] 0.00379145
4 *419:la_data_in[17] la_data_out[18] 0.000158658
5 *419:la_data_in[17] *419:la_oenb[15] 0
6 *419:la_data_in[17] *419:la_oenb[16] 0.000277802
7 *419:la_data_in[16] *419:la_data_in[17] 0.000859359
*RES
1 la_data_in[17] *419:la_data_in[17] 26.888 
*END

*D_NET *124 0.00797694
*CONN
*P la_data_in[18] I
*I *419:la_data_in[18] I *D tjrpu
*CAP
1 la_data_in[18] 0.00154628
2 *419:la_data_in[18] 0.00154628
3 *419:la_data_in[18] la_data_out[19] 6.4927e-06
4 *419:la_data_in[18] *419:la_data_in[19] 0.000859359
5 *419:la_data_in[18] *419:la_oenb[17] 0.00401852
6 *419:la_data_in[18] *419:la_oenb[18] 0
*RES
1 la_data_in[18] *419:la_data_in[18] 27.512 
*END

*D_NET *125 0.00918919
*CONN
*P la_data_in[19] I
*I *419:la_data_in[19] I *D tjrpu
*CAP
1 la_data_in[19] 0.00141963
2 *419:la_data_in[19] 0.00141963
3 *419:la_data_in[19] la_data_out[19] 0.00375915
4 *419:la_data_in[19] la_data_out[20] 0.000122617
5 *419:la_data_in[19] *419:la_data_in[20] 0.00160812
6 *419:la_data_in[19] *419:la_oenb[17] 6.8199e-07
7 *419:la_data_in[19] *419:la_oenb[18] 0
8 *419:la_data_in[18] *419:la_data_in[19] 0.000859359
*RES
1 la_data_in[19] *419:la_data_in[19] 28.24 
*END

*D_NET *126 0.00188355
*CONN
*P la_data_in[1] I
*I *419:la_data_in[1] I *D tjrpu
*CAP
1 la_data_in[1] 0.000941775
2 *419:la_data_in[1] 0.000941775
3 *419:la_data_in[1] la_data_out[1] 0
4 *419:la_data_in[1] *419:la_oenb[0] 0
*RES