*SPEF "ieee 1481-1999"
*DESIGN "user_project_wrapper"
*DATE "11:11:11 Fri 11 11, 1111"
*VENDOR "OpenRCX"
*PROGRAM "Parallel Extraction"
*VERSION "1.0"
*DESIGN_FLOW "NAME_SCOPE LOCAL" "PIN_CAP NONE"
*DIVIDER /
*DELIMITER :
*BUS_DELIMITER []
*T_UNIT 1 NS
*C_UNIT 1 PF
*R_UNIT 1 OHM
*L_UNIT 1 HENRY

*NAME_MAP
*1 io_in[0]
*2 io_in[10]
*3 io_in[11]
*4 io_in[12]
*5 io_in[13]
*6 io_in[14]
*7 io_in[15]
*8 io_in[16]
*9 io_in[17]
*10 io_in[18]
*11 io_in[19]
*12 io_in[1]
*13 io_in[20]
*14 io_in[21]
*15 io_in[22]
*16 io_in[23]
*17 io_in[24]
*18 io_in[25]
*19 io_in[26]
*20 io_in[27]
*21 io_in[28]
*22 io_in[29]
*23 io_in[2]
*24 io_in[30]
*25 io_in[31]
*26 io_in[32]
*27 io_in[33]
*28 io_in[34]
*29 io_in[35]
*30 io_in[36]
*31 io_in[37]
*32 io_in[3]
*33 io_in[4]
*34 io_in[5]
*35 io_in[6]
*36 io_in[7]
*37 io_in[8]
*38 io_in[9]
*39 io_oeb[0]
*40 io_oeb[10]
*41 io_oeb[11]
*42 io_oeb[12]
*43 io_oeb[13]
*44 io_oeb[14]
*45 io_oeb[15]
*46 io_oeb[16]
*47 io_oeb[17]
*48 io_oeb[18]
*49 io_oeb[19]
*50 io_oeb[1]
*51 io_oeb[20]
*52 io_oeb[21]
*53 io_oeb[22]
*54 io_oeb[23]
*55 io_oeb[24]
*56 io_oeb[25]
*57 io_oeb[26]
*58 io_oeb[27]
*59 io_oeb[28]
*60 io_oeb[29]
*61 io_oeb[2]
*62 io_oeb[30]
*63 io_oeb[31]
*64 io_oeb[32]
*65 io_oeb[33]
*66 io_oeb[34]
*67 io_oeb[35]
*68 io_oeb[36]
*69 io_oeb[37]
*70 io_oeb[3]
*71 io_oeb[4]
*72 io_oeb[5]
*73 io_oeb[6]
*74 io_oeb[7]
*75 io_oeb[8]
*76 io_oeb[9]
*77 io_out[0]
*78 io_out[10]
*79 io_out[11]
*80 io_out[12]
*81 io_out[13]
*82 io_out[14]
*83 io_out[15]
*84 io_out[16]
*85 io_out[17]
*86 io_out[18]
*87 io_out[19]
*88 io_out[1]
*89 io_out[20]
*90 io_out[21]
*91 io_out[22]
*92 io_out[23]
*93 io_out[24]
*94 io_out[25]
*95 io_out[26]
*96 io_out[27]
*97 io_out[28]
*98 io_out[29]
*99 io_out[2]
*100 io_out[30]
*101 io_out[31]
*102 io_out[32]
*103 io_out[33]
*104 io_out[34]
*105 io_out[35]
*106 io_out[36]
*107 io_out[37]
*108 io_out[3]
*109 io_out[4]
*110 io_out[5]
*111 io_out[6]
*112 io_out[7]
*113 io_out[8]
*114 io_out[9]
*115 la_data_in[0]
*116 la_data_in[10]
*117 la_data_in[11]
*118 la_data_in[12]
*119 la_data_in[13]
*120 la_data_in[14]
*121 la_data_in[15]
*122 la_data_in[16]
*123 la_data_in[17]
*124 la_data_in[18]
*125 la_data_in[19]
*126 la_data_in[1]
*127 la_data_in[20]
*128 la_data_in[21]
*129 la_data_in[22]
*130 la_data_in[23]
*131 la_data_in[24]
*132 la_data_in[25]
*133 la_data_in[26]
*134 la_data_in[27]
*135 la_data_in[28]
*136 la_data_in[29]
*137 la_data_in[2]
*138 la_data_in[30]
*139 la_data_in[31]
*140 la_data_in[32]
*141 la_data_in[33]
*142 la_data_in[34]
*143 la_data_in[35]
*144 la_data_in[36]
*145 la_data_in[37]
*146 la_data_in[38]
*147 la_data_in[39]
*148 la_data_in[3]
*149 la_data_in[40]
*150 la_data_in[41]
*151 la_data_in[42]
*152 la_data_in[43]
*153 la_data_in[44]
*154 la_data_in[45]
*155 la_data_in[46]
*156 la_data_in[47]
*157 la_data_in[48]
*158 la_data_in[49]
*159 la_data_in[4]
*160 la_data_in[50]
*161 la_data_in[51]
*162 la_data_in[52]
*163 la_data_in[53]
*164 la_data_in[54]
*165 la_data_in[55]
*166 la_data_in[56]
*167 la_data_in[57]
*168 la_data_in[58]
*169 la_data_in[59]
*170 la_data_in[5]
*171 la_data_in[60]
*172 la_data_in[61]
*173 la_data_in[62]
*174 la_data_in[63]
*175 la_data_in[6]
*176 la_data_in[7]
*177 la_data_in[8]
*178 la_data_in[9]
*179 la_data_out[0]
*180 la_data_out[10]
*181 la_data_out[11]
*182 la_data_out[12]
*183 la_data_out[13]
*184 la_data_out[14]
*185 la_data_out[15]
*186 la_data_out[16]
*187 la_data_out[17]
*188 la_data_out[18]
*189 la_data_out[19]
*190 la_data_out[1]
*191 la_data_out[20]
*192 la_data_out[21]
*193 la_data_out[22]
*194 la_data_out[23]
*195 la_data_out[24]
*196 la_data_out[25]
*197 la_data_out[26]
*198 la_data_out[27]
*199 la_data_out[28]
*200 la_data_out[29]
*201 la_data_out[2]
*202 la_data_out[30]
*203 la_data_out[31]
*204 la_data_out[32]
*205 la_data_out[33]
*206 la_data_out[34]
*207 la_data_out[35]
*208 la_data_out[36]
*209 la_data_out[37]
*210 la_data_out[38]
*211 la_data_out[39]
*212 la_data_out[3]
*213 la_data_out[40]
*214 la_data_out[41]
*215 la_data_out[42]
*216 la_data_out[43]
*217 la_data_out[44]
*218 la_data_out[45]
*219 la_data_out[46]
*220 la_data_out[47]
*221 la_data_out[48]
*222 la_data_out[49]
*223 la_data_out[4]
*224 la_data_out[50]
*225 la_data_out[51]
*226 la_data_out[52]
*227 la_data_out[53]
*228 la_data_out[54]
*229 la_data_out[55]
*230 la_data_out[56]
*231 la_data_out[57]
*232 la_data_out[58]
*233 la_data_out[59]
*234 la_data_out[5]
*235 la_data_out[60]
*236 la_data_out[61]
*237 la_data_out[62]
*238 la_data_out[63]
*239 la_data_out[6]
*240 la_data_out[7]
*241 la_data_out[8]
*242 la_data_out[9]
*243 la_oenb[0]
*244 la_oenb[10]
*245 la_oenb[11]
*246 la_oenb[12]
*247 la_oenb[13]
*248 la_oenb[14]
*249 la_oenb[15]
*250 la_oenb[16]
*251 la_oenb[17]
*252 la_oenb[18]
*253 la_oenb[19]
*254 la_oenb[1]
*255 la_oenb[20]
*256 la_oenb[21]
*257 la_oenb[22]
*258 la_oenb[23]
*259 la_oenb[24]
*260 la_oenb[25]
*261 la_oenb[26]
*262 la_oenb[27]
*263 la_oenb[28]
*264 la_oenb[29]
*265 la_oenb[2]
*266 la_oenb[30]
*267 la_oenb[31]
*268 la_oenb[32]
*269 la_oenb[33]
*270 la_oenb[34]
*271 la_oenb[35]
*272 la_oenb[36]
*273 la_oenb[37]
*274 la_oenb[38]
*275 la_oenb[39]
*276 la_oenb[3]
*277 la_oenb[40]
*278 la_oenb[41]
*279 la_oenb[42]
*280 la_oenb[43]
*281 la_oenb[44]
*282 la_oenb[45]
*283 la_oenb[46]
*284 la_oenb[47]
*285 la_oenb[48]
*286 la_oenb[49]
*287 la_oenb[4]
*288 la_oenb[50]
*289 la_oenb[51]
*290 la_oenb[52]
*291 la_oenb[53]
*292 la_oenb[54]
*293 la_oenb[55]
*294 la_oenb[56]
*295 la_oenb[57]
*296 la_oenb[58]
*297 la_oenb[59]
*298 la_oenb[5]
*299 la_oenb[60]
*300 la_oenb[61]
*301 la_oenb[62]
*302 la_oenb[63]
*303 la_oenb[6]
*304 la_oenb[7]
*305 la_oenb[8]
*306 la_oenb[9]
*307 user_clock2
*308 user_irq[0]
*309 user_irq[1]
*310 user_irq[2]
*313 wb_clk_i
*314 wb_rst_i
*315 wbs_ack_o
*316 wbs_adr_i[0]
*317 wbs_adr_i[10]
*318 wbs_adr_i[11]
*319 wbs_adr_i[12]
*320 wbs_adr_i[13]
*321 wbs_adr_i[14]
*322 wbs_adr_i[15]
*323 wbs_adr_i[16]
*324 wbs_adr_i[17]
*325 wbs_adr_i[18]
*326 wbs_adr_i[19]
*327 wbs_adr_i[1]
*328 wbs_adr_i[20]
*329 wbs_adr_i[21]
*330 wbs_adr_i[22]
*331 wbs_adr_i[23]
*332 wbs_adr_i[24]
*333 wbs_adr_i[25]
*334 wbs_adr_i[26]
*335 wbs_adr_i[27]
*336 wbs_adr_i[28]
*337 wbs_adr_i[29]
*338 wbs_adr_i[2]
*339 wbs_adr_i[30]
*340 wbs_adr_i[31]
*341 wbs_adr_i[3]
*342 wbs_adr_i[4]
*343 wbs_adr_i[5]
*344 wbs_adr_i[6]
*345 wbs_adr_i[7]
*346 wbs_adr_i[8]
*347 wbs_adr_i[9]
*348 wbs_cyc_i
*349 wbs_dat_i[0]
*350 wbs_dat_i[10]
*351 wbs_dat_i[11]
*352 wbs_dat_i[12]
*353 wbs_dat_i[13]
*354 wbs_dat_i[14]
*355 wbs_dat_i[15]
*356 wbs_dat_i[16]
*357 wbs_dat_i[17]
*358 wbs_dat_i[18]
*359 wbs_dat_i[19]
*360 wbs_dat_i[1]
*361 wbs_dat_i[20]
*362 wbs_dat_i[21]
*363 wbs_dat_i[22]
*364 wbs_dat_i[23]
*365 wbs_dat_i[24]
*366 wbs_dat_i[25]
*367 wbs_dat_i[26]
*368 wbs_dat_i[27]
*369 wbs_dat_i[28]
*370 wbs_dat_i[29]
*371 wbs_dat_i[2]
*372 wbs_dat_i[30]
*373 wbs_dat_i[31]
*374 wbs_dat_i[3]
*375 wbs_dat_i[4]
*376 wbs_dat_i[5]
*377 wbs_dat_i[6]
*378 wbs_dat_i[7]
*379 wbs_dat_i[8]
*380 wbs_dat_i[9]
*381 wbs_dat_o[0]
*382 wbs_dat_o[10]
*383 wbs_dat_o[11]
*384 wbs_dat_o[12]
*385 wbs_dat_o[13]
*386 wbs_dat_o[14]
*387 wbs_dat_o[15]
*388 wbs_dat_o[16]
*389 wbs_dat_o[17]
*390 wbs_dat_o[18]
*391 wbs_dat_o[19]
*392 wbs_dat_o[1]
*393 wbs_dat_o[20]
*394 wbs_dat_o[21]
*395 wbs_dat_o[22]
*396 wbs_dat_o[23]
*397 wbs_dat_o[24]
*398 wbs_dat_o[25]
*399 wbs_dat_o[26]
*400 wbs_dat_o[27]
*401 wbs_dat_o[28]
*402 wbs_dat_o[29]
*403 wbs_dat_o[2]
*404 wbs_dat_o[30]
*405 wbs_dat_o[31]
*406 wbs_dat_o[3]
*407 wbs_dat_o[4]
*408 wbs_dat_o[5]
*409 wbs_dat_o[6]
*410 wbs_dat_o[7]
*411 wbs_dat_o[8]
*412 wbs_dat_o[9]
*413 wbs_sel_i[0]
*414 wbs_sel_i[1]
*415 wbs_sel_i[2]
*416 wbs_sel_i[3]
*417 wbs_stb_i
*418 wbs_we_i
*419 line_a_buf_b_a\[0\]
*420 line_a_buf_b_a\[1\]
*421 line_a_buf_b_a\[2\]
*422 line_a_buf_b_a\[3\]
*423 line_a_buf_b_a\[4\]
*424 line_a_buf_b_a\[5\]
*425 line_a_buf_b_a\[6\]
*426 line_a_buf_b_a\[7\]
*427 line_a_buf_b_cen
*428 line_a_buf_b_clk
*429 line_a_buf_b_d\[0\]
*430 line_a_buf_b_d\[1\]
*431 line_a_buf_b_d\[2\]
*432 line_a_buf_b_d\[3\]
*433 line_a_buf_b_d\[4\]
*434 line_a_buf_b_d\[5\]
*435 line_a_buf_b_d\[6\]
*436 line_a_buf_b_d\[7\]
*437 line_a_buf_b_gwen
*438 line_a_buf_b_q\[0\]
*439 line_a_buf_b_q\[1\]
*440 line_a_buf_b_q\[2\]
*441 line_a_buf_b_q\[3\]
*442 line_a_buf_b_q\[4\]
*443 line_a_buf_b_q\[5\]
*444 line_a_buf_b_q\[6\]
*445 line_a_buf_b_q\[7\]
*446 line_a_buf_b_wen\[0\]
*447 line_a_buf_b_wen\[1\]
*448 line_a_buf_b_wen\[2\]
*449 line_a_buf_b_wen\[3\]
*450 line_a_buf_b_wen\[4\]
*451 line_a_buf_b_wen\[5\]
*452 line_a_buf_b_wen\[6\]
*453 line_a_buf_b_wen\[7\]
*454 line_a_buf_d_a\[0\]
*455 line_a_buf_d_a\[1\]
*456 line_a_buf_d_a\[2\]
*457 line_a_buf_d_a\[3\]
*458 line_a_buf_d_a\[4\]
*459 line_a_buf_d_a\[5\]
*460 line_a_buf_d_a\[6\]
*461 line_a_buf_d_a\[7\]
*462 line_a_buf_d_cen
*463 line_a_buf_d_clk
*464 line_a_buf_d_d\[0\]
*465 line_a_buf_d_d\[1\]
*466 line_a_buf_d_d\[2\]
*467 line_a_buf_d_d\[3\]
*468 line_a_buf_d_d\[4\]
*469 line_a_buf_d_d\[5\]
*470 line_a_buf_d_d\[6\]
*471 line_a_buf_d_d\[7\]
*472 line_a_buf_d_gwen
*473 line_a_buf_d_q\[0\]
*474 line_a_buf_d_q\[1\]
*475 line_a_buf_d_q\[2\]
*476 line_a_buf_d_q\[3\]
*477 line_a_buf_d_q\[4\]
*478 line_a_buf_d_q\[5\]
*479 line_a_buf_d_q\[6\]
*480 line_a_buf_d_q\[7\]
*481 line_a_buf_d_wen\[0\]
*482 line_a_buf_d_wen\[1\]
*483 line_a_buf_d_wen\[2\]
*484 line_a_buf_d_wen\[3\]
*485 line_a_buf_d_wen\[4\]
*486 line_a_buf_d_wen\[5\]
*487 line_a_buf_d_wen\[6\]
*488 line_a_buf_d_wen\[7\]
*489 line_a_buf_g_a\[0\]
*490 line_a_buf_g_a\[1\]
*491 line_a_buf_g_a\[2\]
*492 line_a_buf_g_a\[3\]
*493 line_a_buf_g_a\[4\]
*494 line_a_buf_g_a\[5\]
*495 line_a_buf_g_a\[6\]
*496 line_a_buf_g_a\[7\]
*497 line_a_buf_g_cen
*498 line_a_buf_g_clk
*499 line_a_buf_g_d\[0\]
*500 line_a_buf_g_d\[1\]
*501 line_a_buf_g_d\[2\]
*502 line_a_buf_g_d\[3\]
*503 line_a_buf_g_d\[4\]
*504 line_a_buf_g_d\[5\]
*505 line_a_buf_g_d\[6\]
*506 line_a_buf_g_d\[7\]
*507 line_a_buf_g_gwen
*508 line_a_buf_g_q\[0\]
*509 line_a_buf_g_q\[1\]
*510 line_a_buf_g_q\[2\]
*511 line_a_buf_g_q\[3\]
*512 line_a_buf_g_q\[4\]
*513 line_a_buf_g_q\[5\]
*514 line_a_buf_g_q\[6\]
*515 line_a_buf_g_q\[7\]
*516 line_a_buf_g_wen\[0\]
*517 line_a_buf_g_wen\[1\]
*518 line_a_buf_g_wen\[2\]
*519 line_a_buf_g_wen\[3\]
*520 line_a_buf_g_wen\[4\]
*521 line_a_buf_g_wen\[5\]
*522 line_a_buf_g_wen\[6\]
*523 line_a_buf_g_wen\[7\]
*524 line_a_buf_r_a\[0\]
*525 line_a_buf_r_a\[1\]
*526 line_a_buf_r_a\[2\]
*527 line_a_buf_r_a\[3\]
*528 line_a_buf_r_a\[4\]
*529 line_a_buf_r_a\[5\]
*530 line_a_buf_r_a\[6\]
*531 line_a_buf_r_a\[7\]
*532 line_a_buf_r_cen
*533 line_a_buf_r_clk
*534 line_a_buf_r_d\[0\]
*535 line_a_buf_r_d\[1\]
*536 line_a_buf_r_d\[2\]
*537 line_a_buf_r_d\[3\]
*538 line_a_buf_r_d\[4\]
*539 line_a_buf_r_d\[5\]
*540 line_a_buf_r_d\[6\]
*541 line_a_buf_r_d\[7\]
*542 line_a_buf_r_gwen
*543 line_a_buf_r_q\[0\]
*544 line_a_buf_r_q\[1\]
*545 line_a_buf_r_q\[2\]
*546 line_a_buf_r_q\[3\]
*547 line_a_buf_r_q\[4\]
*548 line_a_buf_r_q\[5\]
*549 line_a_buf_r_q\[6\]
*550 line_a_buf_r_q\[7\]
*551 line_a_buf_r_wen\[0\]
*552 line_a_buf_r_wen\[1\]
*553 line_a_buf_r_wen\[2\]
*554 line_a_buf_r_wen\[3\]
*555 line_a_buf_r_wen\[4\]
*556 line_a_buf_r_wen\[5\]
*557 line_a_buf_r_wen\[6\]
*558 line_a_buf_r_wen\[7\]
*559 line_b_buf_b_a\[0\]
*560 line_b_buf_b_a\[1\]
*561 line_b_buf_b_a\[2\]
*562 line_b_buf_b_a\[3\]
*563 line_b_buf_b_a\[4\]
*564 line_b_buf_b_a\[5\]
*565 line_b_buf_b_a\[6\]
*566 line_b_buf_b_a\[7\]
*567 line_b_buf_b_cen
*568 line_b_buf_b_clk
*569 line_b_buf_b_d\[0\]
*570 line_b_buf_b_d\[1\]
*571 line_b_buf_b_d\[2\]
*572 line_b_buf_b_d\[3\]
*573 line_b_buf_b_d\[4\]
*574 line_b_buf_b_d\[5\]
*575 line_b_buf_b_d\[6\]
*576 line_b_buf_b_d\[7\]
*577 line_b_buf_b_gwen
*578 line_b_buf_b_q\[0\]
*579 line_b_buf_b_q\[1\]
*580 line_b_buf_b_q\[2\]
*581 line_b_buf_b_q\[3\]
*582 line_b_buf_b_q\[4\]
*583 line_b_buf_b_q\[5\]
*584 line_b_buf_b_q\[6\]
*585 line_b_buf_b_q\[7\]
*586 line_b_buf_b_wen\[0\]
*587 line_b_buf_b_wen\[1\]
*588 line_b_buf_b_wen\[2\]
*589 line_b_buf_b_wen\[3\]
*590 line_b_buf_b_wen\[4\]
*591 line_b_buf_b_wen\[5\]
*592 line_b_buf_b_wen\[6\]
*593 line_b_buf_b_wen\[7\]
*594 line_b_buf_d_a\[0\]
*595 line_b_buf_d_a\[1\]
*596 line_b_buf_d_a\[2\]
*597 line_b_buf_d_a\[3\]
*598 line_b_buf_d_a\[4\]
*599 line_b_buf_d_a\[5\]
*600 line_b_buf_d_a\[6\]
*601 line_b_buf_d_a\[7\]
*602 line_b_buf_d_cen
*603 line_b_buf_d_clk
*604 line_b_buf_d_d\[0\]
*605 line_b_buf_d_d\[1\]
*606 line_b_buf_d_d\[2\]
*607 line_b_buf_d_d\[3\]
*608 line_b_buf_d_d\[4\]
*609 line_b_buf_d_d\[5\]
*610 line_b_buf_d_d\[6\]
*611 line_b_buf_d_d\[7\]
*612 line_b_buf_d_gwen
*613 line_b_buf_d_q\[0\]
*614 line_b_buf_d_q\[1\]
*615 line_b_buf_d_q\[2\]
*616 line_b_buf_d_q\[3\]
*617 line_b_buf_d_q\[4\]
*618 line_b_buf_d_q\[5\]
*619 line_b_buf_d_q\[6\]
*620 line_b_buf_d_q\[7\]
*621 line_b_buf_d_wen\[0\]
*622 line_b_buf_d_wen\[1\]
*623 line_b_buf_d_wen\[2\]
*624 line_b_buf_d_wen\[3\]
*625 line_b_buf_d_wen\[4\]
*626 line_b_buf_d_wen\[5\]
*627 line_b_buf_d_wen\[6\]
*628 line_b_buf_d_wen\[7\]
*629 line_b_buf_g_a\[0\]
*630 line_b_buf_g_a\[1\]
*631 line_b_buf_g_a\[2\]
*632 line_b_buf_g_a\[3\]
*633 line_b_buf_g_a\[4\]
*634 line_b_buf_g_a\[5\]
*635 line_b_buf_g_a\[6\]
*636 line_b_buf_g_a\[7\]
*637 line_b_buf_g_cen
*638 line_b_buf_g_clk
*639 line_b_buf_g_d\[0\]
*640 line_b_buf_g_d\[1\]
*641 line_b_buf_g_d\[2\]
*642 line_b_buf_g_d\[3\]
*643 line_b_buf_g_d\[4\]
*644 line_b_buf_g_d\[5\]
*645 line_b_buf_g_d\[6\]
*646 line_b_buf_g_d\[7\]
*647 line_b_buf_g_gwen
*648 line_b_buf_g_q\[0\]
*649 line_b_buf_g_q\[1\]
*650 line_b_buf_g_q\[2\]
*651 line_b_buf_g_q\[3\]
*652 line_b_buf_g_q\[4\]
*653 line_b_buf_g_q\[5\]
*654 line_b_buf_g_q\[6\]
*655 line_b_buf_g_q\[7\]
*656 line_b_buf_g_wen\[0\]
*657 line_b_buf_g_wen\[1\]
*658 line_b_buf_g_wen\[2\]
*659 line_b_buf_g_wen\[3\]
*660 line_b_buf_g_wen\[4\]
*661 line_b_buf_g_wen\[5\]
*662 line_b_buf_g_wen\[6\]
*663 line_b_buf_g_wen\[7\]
*664 line_b_buf_r_a\[0\]
*665 line_b_buf_r_a\[1\]
*666 line_b_buf_r_a\[2\]
*667 line_b_buf_r_a\[3\]
*668 line_b_buf_r_a\[4\]
*669 line_b_buf_r_a\[5\]
*670 line_b_buf_r_a\[6\]
*671 line_b_buf_r_a\[7\]
*672 line_b_buf_r_cen
*673 line_b_buf_r_clk
*674 line_b_buf_r_d\[0\]
*675 line_b_buf_r_d\[1\]
*676 line_b_buf_r_d\[2\]
*677 line_b_buf_r_d\[3\]
*678 line_b_buf_r_d\[4\]
*679 line_b_buf_r_d\[5\]
*680 line_b_buf_r_d\[6\]
*681 line_b_buf_r_d\[7\]
*682 line_b_buf_r_gwen
*683 line_b_buf_r_q\[0\]
*684 line_b_buf_r_q\[1\]
*685 line_b_buf_r_q\[2\]
*686 line_b_buf_r_q\[3\]
*687 line_b_buf_r_q\[4\]
*688 line_b_buf_r_q\[5\]
*689 line_b_buf_r_q\[6\]
*690 line_b_buf_r_q\[7\]
*691 line_b_buf_r_wen\[0\]
*692 line_b_buf_r_wen\[1\]
*693 line_b_buf_r_wen\[2\]
*694 line_b_buf_r_wen\[3\]
*695 line_b_buf_r_wen\[4\]
*696 line_b_buf_r_wen\[5\]
*697 line_b_buf_r_wen\[6\]
*698 line_b_buf_r_wen\[7\]
*699 line_a_buf_b
*700 line_a_buf_d
*701 line_a_buf_g
*702 line_a_buf_r
*703 line_b_buf_b
*704 line_b_buf_d
*705 line_b_buf_g
*706 line_b_buf_r
*707 mprj

*PORTS
io_in[0] I
io_in[10] I
io_in[11] I
io_in[12] I
io_in[13] I
io_in[14] I
io_in[15] I
io_in[16] I
io_in[17] I
io_in[18] I
io_in[19] I
io_in[1] I
io_in[20] I
io_in[21] I
io_in[22] I
io_in[23] I
io_in[24] I
io_in[25] I
io_in[26] I
io_in[27] I
io_in[28] I
io_in[29] I
io_in[2] I
io_in[30] I
io_in[31] I
io_in[32] I
io_in[33] I
io_in[34] I
io_in[35] I
io_in[36] I
io_in[37] I
io_in[3] I
io_in[4] I
io_in[5] I
io_in[6] I
io_in[7] I
io_in[8] I
io_in[9] I
io_oeb[0] O
io_oeb[10] O
io_oeb[11] O
io_oeb[12] O
io_oeb[13] O
io_oeb[14] O
io_oeb[15] O
io_oeb[16] O
io_oeb[17] O
io_oeb[18] O
io_oeb[19] O
io_oeb[1] O
io_oeb[20] O
io_oeb[21] O
io_oeb[22] O
io_oeb[23] O
io_oeb[24] O
io_oeb[25] O
io_oeb[26] O
io_oeb[27] O
io_oeb[28] O
io_oeb[29] O
io_oeb[2] O
io_oeb[30] O
io_oeb[31] O
io_oeb[32] O
io_oeb[33] O
io_oeb[34] O
io_oeb[35] O
io_oeb[36] O
io_oeb[37] O
io_oeb[3] O
io_oeb[4] O
io_oeb[5] O
io_oeb[6] O
io_oeb[7] O
io_oeb[8] O
io_oeb[9] O
io_out[0] O
io_out[10] O
io_out[11] O
io_out[12] O
io_out[13] O
io_out[14] O
io_out[15] O
io_out[16] O
io_out[17] O
io_out[18] O
io_out[19] O
io_out[1] O
io_out[20] O
io_out[21] O
io_out[22] O
io_out[23] O
io_out[24] O
io_out[25] O
io_out[26] O
io_out[27] O
io_out[28] O
io_out[29] O
io_out[2] O
io_out[30] O
io_out[31] O
io_out[32] O
io_out[33] O
io_out[34] O
io_out[35] O
io_out[36] O
io_out[37] O
io_out[3] O
io_out[4] O
io_out[5] O
io_out[6] O
io_out[7] O
io_out[8] O
io_out[9] O
la_data_in[0] I
la_data_in[10] I
la_data_in[11] I
la_data_in[12] I
la_data_in[13] I
la_data_in[14] I
la_data_in[15] I
la_data_in[16] I
la_data_in[17] I
la_data_in[18] I
la_data_in[19] I
la_data_in[1] I
la_data_in[20] I
la_data_in[21] I
la_data_in[22] I
la_data_in[23] I
la_data_in[24] I
la_data_in[25] I
la_data_in[26] I
la_data_in[27] I
la_data_in[28] I
la_data_in[29] I
la_data_in[2] I
la_data_in[30] I
la_data_in[31] I
la_data_in[32] I
la_data_in[33] I
la_data_in[34] I
la_data_in[35] I
la_data_in[36] I
la_data_in[37] I
la_data_in[38] I
la_data_in[39] I
la_data_in[3] I
la_data_in[40] I
la_data_in[41] I
la_data_in[42] I
la_data_in[43] I
la_data_in[44] I
la_data_in[45] I
la_data_in[46] I
la_data_in[47] I
la_data_in[48] I
la_data_in[49] I
la_data_in[4] I
la_data_in[50] I
la_data_in[51] I
la_data_in[52] I
la_data_in[53] I
la_data_in[54] I
la_data_in[55] I
la_data_in[56] I
la_data_in[57] I
la_data_in[58] I
la_data_in[59] I
la_data_in[5] I
la_data_in[60] I
la_data_in[61] I
la_data_in[62] I
la_data_in[63] I
la_data_in[6] I
la_data_in[7] I
la_data_in[8] I
la_data_in[9] I
la_data_out[0] O
la_data_out[10] O
la_data_out[11] O
la_data_out[12] O
la_data_out[13] O
la_data_out[14] O
la_data_out[15] O
la_data_out[16] O
la_data_out[17] O
la_data_out[18] O
la_data_out[19] O
la_data_out[1] O
la_data_out[20] O
la_data_out[21] O
la_data_out[22] O
la_data_out[23] O
la_data_out[24] O
la_data_out[25] O
la_data_out[26] O
la_data_out[27] O
la_data_out[28] O
la_data_out[29] O
la_data_out[2] O
la_data_out[30] O
la_data_out[31] O
la_data_out[32] O
la_data_out[33] O
la_data_out[34] O
la_data_out[35] O
la_data_out[36] O
la_data_out[37] O
la_data_out[38] O
la_data_out[39] O
la_data_out[3] O
la_data_out[40] O
la_data_out[41] O
la_data_out[42] O
la_data_out[43] O
la_data_out[44] O
la_data_out[45] O
la_data_out[46] O
la_data_out[47] O
la_data_out[48] O
la_data_out[49] O
la_data_out[4] O
la_data_out[50] O
la_data_out[51] O
la_data_out[52] O
la_data_out[53] O
la_data_out[54] O
la_data_out[55] O
la_data_out[56] O
la_data_out[57] O
la_data_out[58] O
la_data_out[59] O
la_data_out[5] O
la_data_out[60] O
la_data_out[61] O
la_data_out[62] O
la_data_out[63] O
la_data_out[6] O
la_data_out[7] O
la_data_out[8] O
la_data_out[9] O
la_oenb[0] I
la_oenb[10] I
la_oenb[11] I
la_oenb[12] I
la_oenb[13] I
la_oenb[14] I
la_oenb[15] I
la_oenb[16] I
la_oenb[17] I
la_oenb[18] I
la_oenb[19] I
la_oenb[1] I
la_oenb[20] I
la_oenb[21] I
la_oenb[22] I
la_oenb[23] I
la_oenb[24] I
la_oenb[25] I
la_oenb[26] I
la_oenb[27] I
la_oenb[28] I
la_oenb[29] I
la_oenb[2] I
la_oenb[30] I
la_oenb[31] I
la_oenb[32] I
la_oenb[33] I
la_oenb[34] I
la_oenb[35] I
la_oenb[36] I
la_oenb[37] I
la_oenb[38] I
la_oenb[39] I
la_oenb[3] I
la_oenb[40] I
la_oenb[41] I
la_oenb[42] I
la_oenb[43] I
la_oenb[44] I
la_oenb[45] I
la_oenb[46] I
la_oenb[47] I
la_oenb[48] I
la_oenb[49] I
la_oenb[4] I
la_oenb[50] I
la_oenb[51] I
la_oenb[52] I
la_oenb[53] I
la_oenb[54] I
la_oenb[55] I
la_oenb[56] I
la_oenb[57] I
la_oenb[58] I
la_oenb[59] I
la_oenb[5] I
la_oenb[60] I
la_oenb[61] I
la_oenb[62] I
la_oenb[63] I
la_oenb[6] I
la_oenb[7] I
la_oenb[8] I
la_oenb[9] I
user_clock2 I
user_irq[0] O
user_irq[1] O
user_irq[2] O
wb_clk_i I
wb_rst_i I
wbs_ack_o O
wbs_adr_i[0] I
wbs_adr_i[10] I
wbs_adr_i[11] I
wbs_adr_i[12] I
wbs_adr_i[13] I
wbs_adr_i[14] I
wbs_adr_i[15] I
wbs_adr_i[16] I
wbs_adr_i[17] I
wbs_adr_i[18] I
wbs_adr_i[19] I
wbs_adr_i[1] I
wbs_adr_i[20] I
wbs_adr_i[21] I
wbs_adr_i[22] I
wbs_adr_i[23] I
wbs_adr_i[24] I
wbs_adr_i[25] I
wbs_adr_i[26] I
wbs_adr_i[27] I
wbs_adr_i[28] I
wbs_adr_i[29] I
wbs_adr_i[2] I
wbs_adr_i[30] I
wbs_adr_i[31] I
wbs_adr_i[3] I
wbs_adr_i[4] I
wbs_adr_i[5] I
wbs_adr_i[6] I
wbs_adr_i[7] I
wbs_adr_i[8] I
wbs_adr_i[9] I
wbs_cyc_i I
wbs_dat_i[0] I
wbs_dat_i[10] I
wbs_dat_i[11] I
wbs_dat_i[12] I
wbs_dat_i[13] I
wbs_dat_i[14] I
wbs_dat_i[15] I
wbs_dat_i[16] I
wbs_dat_i[17] I
wbs_dat_i[18] I
wbs_dat_i[19] I
wbs_dat_i[1] I
wbs_dat_i[20] I
wbs_dat_i[21] I
wbs_dat_i[22] I
wbs_dat_i[23] I
wbs_dat_i[24] I
wbs_dat_i[25] I
wbs_dat_i[26] I
wbs_dat_i[27] I
wbs_dat_i[28] I
wbs_dat_i[29] I
wbs_dat_i[2] I
wbs_dat_i[30] I
wbs_dat_i[31] I
wbs_dat_i[3] I
wbs_dat_i[4] I
wbs_dat_i[5] I
wbs_dat_i[6] I
wbs_dat_i[7] I
wbs_dat_i[8] I
wbs_dat_i[9] I
wbs_dat_o[0] O
wbs_dat_o[10] O
wbs_dat_o[11] O
wbs_dat_o[12] O
wbs_dat_o[13] O
wbs_dat_o[14] O
wbs_dat_o[15] O
wbs_dat_o[16] O
wbs_dat_o[17] O
wbs_dat_o[18] O
wbs_dat_o[19] O
wbs_dat_o[1] O
wbs_dat_o[20] O
wbs_dat_o[21] O
wbs_dat_o[22] O
wbs_dat_o[23] O
wbs_dat_o[24] O
wbs_dat_o[25] O
wbs_dat_o[26] O
wbs_dat_o[27] O
wbs_dat_o[28] O
wbs_dat_o[29] O
wbs_dat_o[2] O
wbs_dat_o[30] O
wbs_dat_o[31] O
wbs_dat_o[3] O
wbs_dat_o[4] O
wbs_dat_o[5] O
wbs_dat_o[6] O
wbs_dat_o[7] O
wbs_dat_o[8] O
wbs_dat_o[9] O
wbs_sel_i[0] I
wbs_sel_i[1] I
wbs_sel_i[2] I
wbs_sel_i[3] I
wbs_stb_i I
wbs_we_i I

*D_NET *1 0.0115278
*CONN
*P io_in[0] I
*I *707:io_in[0] I *D tjrpu
*CAP
1 io_in[0] 0.0018941
2 *707:io_in[0] 0.00386978
3 *1:11 0.00576389
*RES
1 io_in[0] *1:11 22.995 
2 *1:11 *707:io_in[0] 31.185 
*END

*D_NET *12 0.0128187
*CONN
*P io_in[1] I
*I *707:io_in[1] I *D tjrpu
*CAP
1 io_in[1] 0.00330543
2 *707:io_in[1] 0.00310393
3 *12:11 0.00640936
*RES
1 io_in[1] *12:11 34.875 
2 *12:11 *707:io_in[1] 25.785 
*END

*D_NET *23 0.0144852
*CONN
*P io_in[2] I
*I *707:io_in[2] I *D tjrpu
*CAP
1 io_in[2] 0.00428974
2 *707:io_in[2] 0.00295288
3 *23:11 0.00724262
*RES
1 io_in[2] *23:11 42.615 
2 *23:11 *707:io_in[2] 24.525 
*END

*D_NET *24 0.0106956
*CONN
*P io_in[30] I
*I *707:io_in[8] I *D tjrpu
*CAP
1 io_in[30] 0.00534782
2 *707:io_in[8] 0.00534782
*RES
1 io_in[30] *707:io_in[8] 48.96 
*END

*D_NET *25 0.00982447
*CONN
*P io_in[31] I
*I *707:io_in[9] I *D tjrpu
*CAP
1 io_in[31] 0.00491224
2 *707:io_in[9] 0.00491224
*RES
1 io_in[31] *707:io_in[9] 46.8 
*END

*D_NET *26 0.00915762
*CONN
*P io_in[32] I
*I *707:io_in[10] I *D tjrpu
*CAP
1 io_in[32] 0.00457881
2 *707:io_in[10] 0.00457881
*RES
1 io_in[32] *707:io_in[10] 44.82 
*END

*D_NET *27 0.00993417
*CONN
*P io_in[33] I
*I *707:io_in[11] I *D tjrpu
*CAP
1 io_in[33] 0.00496709
2 *707:io_in[11] 0.00496709
*RES
1 io_in[33] *707:io_in[11] 42.48 
*END

*D_NET *28 0.00878648
*CONN
*P io_in[34] I
*I *707:io_in[12] I *D tjrpu
*CAP
1 io_in[34] 0.00439324
2 *707:io_in[12] 0.00439324
*RES
1 io_in[34] *707:io_in[12] 40.32 
*END

*D_NET *29 0.00743609
*CONN
*P io_in[35] I
*I *707:io_in[13] I *D tjrpu
*CAP
1 io_in[35] 0.00371805
2 *707:io_in[13] 0.00371805
*RES
1 io_in[35] *707:io_in[13] 38.16 
*END

*D_NET *30 0.00714487
*CONN
*P io_in[36] I
*I *707:io_in[14] I *D tjrpu
*CAP
1 io_in[36] 0.00357244
2 *707:io_in[14] 0.00357244
*RES
1 io_in[36] *707:io_in[14] 36 
*END

*D_NET *31 0.00664493
*CONN
*P io_in[37] I
*I *707:io_in[15] I *D tjrpu
*CAP
1 io_in[37] 0.00332246
2 *707:io_in[15] 0.00332246
*RES
1 io_in[37] *707:io_in[15] 34.02 
*END

*D_NET *32 0.0188817
*CONN
*P io_in[3] I
*I *707:io_in[3] I *D tjrpu
*CAP
1 io_in[3] 0.00416088
2 *707:io_in[3] 0.00349042
3 *32:7 0.00765129
4 *707:io_in[3] *61:11 0.00134412
5 *707:io_in[3] *108:11 0.00223497
*RES
1 io_in[3] *32:7 37.125 
2 *32:7 *707:io_in[3] 36.855 
*END

*D_NET *33 0.0241143
*CONN
*P io_in[4] I
*I *707:io_in[4] I *D tjrpu
*CAP
1 io_in[4] 0.00412237
2 *707:io_in[4] 0.00355858
3 *33:7 0.00768095
4 *707:io_in[4] *70:11 0.0039373
5 *707:io_in[4] *109:11 0.00481506
*RES
1 io_in[4] *33:7 36.945 
2 *33:7 *707:io_in[4] 43.515 
*END

*D_NET *34 0.0244617
*CONN
*P io_in[5] I
*I *707:io_in[5] I *D tjrpu
*CAP
1 io_in[5] 0.00416088
2 *707:io_in[5] 0.00394332
3 *34:7 0.0081042
4 *707:io_in[5] *71:9 0.00656538
5 *707:io_in[5] *110:11 0.00168794
*RES
1 io_in[5] *34:7 37.125 
2 *34:7 *707:io_in[5] 49.815 
*END

*D_NET *35 0.0296497
*CONN
*P io_in[6] I
*I *707:io_in[6] I *D tjrpu
*CAP
1 io_in[6] 0.004094
2 *707:io_in[6] 0.000764061
3 *35:9 0.0036367
4 *35:7 0.00696664
5 *35:7 *110:7 2.59407e-05
6 *35:9 *72:11 0.0040776
7 *35:9 *111:9 0.0100847
*RES
1 io_in[6] *35:7 36.765 
2 *35:7 *35:9 46.17 
3 *35:9 *707:io_in[6] 10.485 
*END

*D_NET *36 0.0344109
*CONN
*P io_in[7] I
*I *707:io_in[7] I *D tjrpu
*CAP
1 io_in[7] 0.00410079
2 *707:io_in[7] 0.000764061
3 *36:9 0.00414686
4 *36:7 0.00748359
5 *36:9 *73:9 0.00292315
6 *36:9 *111:9 0.00238206
7 *36:9 *112:9 0.0126104
*RES
1 io_in[7] *36:7 36.765 
2 *36:7 *36:9 52.65 
3 *36:9 *707:io_in[7] 10.485 
*END

*D_NET *39 0.0124858
*CONN
*P io_oeb[0] O
*I *707:io_oeb[0] O *D tjrpu
*CAP
1 io_oeb[0] 0.00172707
2 *707:io_oeb[0] 0.00451582
3 *39:11 0.00624289
*RES
1 *707:io_oeb[0] *39:11 46.035 
2 *39:11 io_oeb[0] 12.465 
*END

*D_NET *50 0.014194
*CONN
*P io_oeb[1] O
*I *707:io_oeb[1] O *D tjrpu
*CAP
1 io_oeb[1] 0.00187812
2 *707:io_oeb[1] 0.00521889
3 *50:9 0.00709701
*RES
1 *707:io_oeb[1] *50:9 46.755 
2 *50:9 io_oeb[1] 18.225 
*END

*D_NET *61 0.0167547
*CONN
*P io_oeb[2] O
*I *707:io_oeb[2] O *D tjrpu
*CAP
1 io_oeb[2] 0.00377425
2 *707:io_oeb[2] 0.00353458
3 *61:11 0.00730884
4 io_oeb[2] *99:7 0.000792914
5 *707:io_in[3] *61:11 0.00134412
*RES
1 *707:io_oeb[2] *61:11 39.375 
2 *61:11 io_oeb[2] 32.445 
*END

*D_NET *62 0.00999109
*CONN
*P io_oeb[30] O
*I *707:io_oeb[8] O *D tjrpu
*CAP
1 io_oeb[30] 0.00499555
2 *707:io_oeb[8] 0.00499555
*RES
1 *707:io_oeb[8] io_oeb[30] 47.52 
*END

*D_NET *63 0.0107434
*CONN
*P io_oeb[31] O
*I *707:io_oeb[9] O *D tjrpu
*CAP
1 io_oeb[31] 0.00537169
2 *707:io_oeb[9] 0.00537169
*RES
1 *707:io_oeb[9] io_oeb[31] 45.36 
*END

*D_NET *64 0.00922401
*CONN
*P io_oeb[32] O
*I *707:io_oeb[10] O *D tjrpu
*CAP
1 io_oeb[32] 0.00461201
2 *707:io_oeb[10] 0.00461201
*RES
1 *707:io_oeb[10] io_oeb[32] 43.2 
*END

*D_NET *65 0.00854093
*CONN
*P io_oeb[33] O
*I *707:io_oeb[11] O *D tjrpu
*CAP
1 io_oeb[33] 0.00427047
2 *707:io_oeb[11] 0.00427047
*RES
1 *707:io_oeb[11] io_oeb[33] 41.22 
*END

*D_NET *66 0.00847773
*CONN
*P io_oeb[34] O
*I *707:io_oeb[12] O *D tjrpu
*CAP
1 io_oeb[34] 0.00423887
2 *707:io_oeb[12] 0.00423887
*RES
1 *707:io_oeb[12] io_oeb[34] 38.88 
*END

*D_NET *67 0.00726976
*CONN
*P io_oeb[35] O
*I *707:io_oeb[13] O *D tjrpu
*CAP
1 io_oeb[35] 0.00363488
2 *707:io_oeb[13] 0.00363488
*RES
1 *707:io_oeb[13] io_oeb[35] 36.72 
*END

*D_NET *68 0.00661634
*CONN
*P io_oeb[36] O
*I *707:io_oeb[14] O *D tjrpu
*CAP
1 io_oeb[36] 0.00330817
2 *707:io_oeb[14] 0.00330817
*RES
1 *707:io_oeb[14] io_oeb[36] 34.56 
*END

*D_NET *69 0.00631176
*CONN
*P io_oeb[37] O
*I *707:io_oeb[15] O *D tjrpu
*CAP
1 io_oeb[37] 0.00315588
2 *707:io_oeb[15] 0.00315588
*RES
1 *707:io_oeb[15] io_oeb[37] 32.4 
*END

*D_NET *70 0.0225219
*CONN
*P io_oeb[3] O
*I *707:io_oeb[3] O *D tjrpu
*CAP
1 io_oeb[3] 0.00416088
2 *707:io_oeb[3] 0.00361389
3 *70:11 0.00777476
4 *70:11 *108:11 0.00303504
5 *707:io_in[4] *70:11 0.0039373
*RES
1 *707:io_oeb[3] *70:11 45.675 
2 *70:11 io_oeb[3] 32.625 
*END

*D_NET *71 0.0275707
*CONN
*P io_oeb[4] O
*I *707:io_oeb[4] O *D tjrpu
*CAP
1 io_oeb[4] 0.00412237
2 *707:io_oeb[4] 0.00349765
3 *71:9 0.00762002
4 *71:9 *109:11 0.0057653
5 *707:io_in[5] *71:9 0.00656538
*RES
1 *707:io_oeb[4] *71:9 47.835 
2 *71:9 io_oeb[4] 36.945 
*END

*D_NET *72 0.0228638
*CONN
*P io_oeb[5] O
*I *707:io_oeb[5] O *D tjrpu
*CAP
1 io_oeb[5] 0.00416086
2 *707:io_oeb[5] 0.000687049
3 *72:11 0.00745605
4 *72:7 0.00398223
5 *72:11 *110:11 0.00188307
6 *72:11 *111:9 0.000616894
7 *35:9 *72:11 0.0040776
*RES
1 *707:io_oeb[5] *72:7 10.125 
2 *72:7 *72:11 48.33 
3 *72:11 io_oeb[5] 32.625 
*END

*D_NET *73 0.0332823
*CONN
*P io_oeb[6] O
*I *707:io_oeb[6] O *D tjrpu
*CAP
1 io_oeb[6] 0.0041778
2 *707:io_oeb[6] 0.000687049
3 *73:9 0.00743859
4 *73:7 0.00394784
5 *73:9 *111:9 0.0109079
6 *73:9 *112:9 0.00319997
7 *36:9 *73:9 0.00292315
*RES
1 *707:io_oeb[6] *73:7 10.125 
2 *73:7 *73:9 50.49 
3 *73:9 io_oeb[6] 37.125 
*END

*D_NET *74 0.0336676
*CONN
*P io_oeb[7] O
*I *707:io_oeb[7] O *D tjrpu
*CAP
1 io_oeb[7] 0.0041778
2 *707:io_oeb[7] 0.000866233
3 *74:9 0.00918975
4 *74:7 0.00587818
5 *74:9 *112:9 0.0135556
*RES
1 *707:io_oeb[7] *74:7 10.125 
2 *74:7 *74:9 56.97 
3 *74:9 io_oeb[7] 37.125 
*END

*D_NET *77 0.0119859
*CONN
*P io_out[0] O
*I *707:io_out[0] O *D tjrpu
*CAP
1 io_out[0] 0.00172707
2 *707:io_out[0] 0.00426589
3 *77:11 0.00599295
*RES
1 *707:io_out[0] *77:11 43.875 
2 *77:11 io_out[0] 12.465 
*END

*D_NET *88 0.0135272
*CONN
*P io_out[1] O
*I *707:io_out[1] O *D tjrpu
*CAP
1 io_out[1] 0.00202918
2 *707:io_out[1] 0.00473444
3 *88:11 0.00676362
*RES
1 *707:io_out[1] *88:11 47.835 
2 *88:11 io_out[1] 14.985 
*END

*D_NET *99 0.0157483
*CONN
*P io_out[2] O
*I *707:io_out[2] O *D tjrpu
*CAP
1 io_out[2] 0.0041071
2 *707:io_out[2] 0.00337061
3 *99:7 0.00747771
4 io_oeb[2] *99:7 0.000792914
*RES
1 *707:io_out[2] *99:7 34.425 
2 *99:7 io_out[2] 34.875 
*END

*D_NET *100 0.00999073
*CONN
*P io_out[30] O
*I *707:io_out[8] O *D tjrpu
*CAP
1 io_out[30] 0.00499536
2 *707:io_out[8] 0.00499536
*RES
1 *707:io_out[8] io_out[30] 48.42 
*END

*D_NET *101 0.00949094
*CONN
*P io_out[31] O
*I *707:io_out[9] O *D tjrpu
*CAP
1 io_out[31] 0.00474547
2 *707:io_out[9] 0.00474547
*RES
1 *707:io_out[9] io_out[31] 46.08 
*END

*D_NET *102 0.0110172
*CONN
*P io_out[32] O
*I *707:io_out[10] O *D tjrpu
*CAP
1 io_out[32] 0.0055086
2 *707:io_out[10] 0.0055086
*RES
1 *707:io_out[10] io_out[32] 43.92 
*END

*D_NET *103 0.00828256
*CONN
*P io_out[33] O
*I *707:io_out[11] O *D tjrpu
*CAP
1 io_out[33] 0.00414128
2 *707:io_out[11] 0.00414128
*RES
1 *707:io_out[11] io_out[33] 41.76 
*END

*D_NET *104 0.00797798
*CONN
*P io_out[34] O
*I *707:io_out[12] O *D tjrpu
*CAP
1 io_out[34] 0.00398899
2 *707:io_out[12] 0.00398899
*RES
1 *707:io_out[12] io_out[34] 39.6 
*END

*D_NET *105 0.00747804
*CONN
*P io_out[35] O
*I *707:io_out[13] O *D tjrpu
*CAP
1 io_out[35] 0.00373902
2 *707:io_out[13] 0.00373902
*RES
1 *707:io_out[13] io_out[35] 37.62 
*END

*D_NET *106 0.00676961
*CONN
*P io_out[36] O