*SPEF "ieee 1481-1999"
*DESIGN "user_project_wrapper"
*DATE "11:11:11 Fri 11 11, 1111"
*VENDOR "OpenRCX"
*PROGRAM "Parallel Extraction"
*VERSION "1.0"
*DESIGN_FLOW "NAME_SCOPE LOCAL" "PIN_CAP NONE"
*DIVIDER /
*DELIMITER :
*BUS_DELIMITER []
*T_UNIT 1 NS
*C_UNIT 1 PF
*R_UNIT 1 OHM
*L_UNIT 1 HENRY

*NAME_MAP
*1 io_in[0]
*2 io_in[10]
*3 io_in[11]
*4 io_in[12]
*5 io_in[13]
*6 io_in[14]
*7 io_in[15]
*8 io_in[16]
*9 io_in[17]
*10 io_in[18]
*11 io_in[19]
*12 io_in[1]
*13 io_in[20]
*14 io_in[21]
*15 io_in[22]
*16 io_in[23]
*17 io_in[24]
*18 io_in[25]
*19 io_in[26]
*20 io_in[27]
*21 io_in[28]
*22 io_in[29]
*23 io_in[2]
*24 io_in[30]
*25 io_in[31]
*26 io_in[32]
*27 io_in[33]
*28 io_in[34]
*29 io_in[35]
*30 io_in[36]
*31 io_in[37]
*32 io_in[3]
*33 io_in[4]
*34 io_in[5]
*35 io_in[6]
*36 io_in[7]
*37 io_in[8]
*38 io_in[9]
*39 io_oeb[0]
*40 io_oeb[10]
*41 io_oeb[11]
*42 io_oeb[12]
*43 io_oeb[13]
*44 io_oeb[14]
*45 io_oeb[15]
*46 io_oeb[16]
*47 io_oeb[17]
*48 io_oeb[18]
*49 io_oeb[19]
*50 io_oeb[1]
*51 io_oeb[20]
*52 io_oeb[21]
*53 io_oeb[22]
*54 io_oeb[23]
*55 io_oeb[24]
*56 io_oeb[25]
*57 io_oeb[26]
*58 io_oeb[27]
*59 io_oeb[28]
*60 io_oeb[29]
*61 io_oeb[2]
*62 io_oeb[30]
*63 io_oeb[31]
*64 io_oeb[32]
*65 io_oeb[33]
*66 io_oeb[34]
*67 io_oeb[35]
*68 io_oeb[36]
*69 io_oeb[37]
*70 io_oeb[3]
*71 io_oeb[4]
*72 io_oeb[5]
*73 io_oeb[6]
*74 io_oeb[7]
*75 io_oeb[8]
*76 io_oeb[9]
*77 io_out[0]
*78 io_out[10]
*79 io_out[11]
*80 io_out[12]
*81 io_out[13]
*82 io_out[14]
*83 io_out[15]
*84 io_out[16]
*85 io_out[17]
*86 io_out[18]
*87 io_out[19]
*88 io_out[1]
*89 io_out[20]
*90 io_out[21]
*91 io_out[22]
*92 io_out[23]
*93 io_out[24]
*94 io_out[25]
*95 io_out[26]
*96 io_out[27]
*97 io_out[28]
*98 io_out[29]
*99 io_out[2]
*100 io_out[30]
*101 io_out[31]
*102 io_out[32]
*103 io_out[33]
*104 io_out[34]
*105 io_out[35]
*106 io_out[36]
*107 io_out[37]
*108 io_out[3]
*109 io_out[4]
*110 io_out[5]
*111 io_out[6]
*112 io_out[7]
*113 io_out[8]
*114 io_out[9]
*115 la_data_in[0]
*116 la_data_in[10]
*117 la_data_in[11]
*118 la_data_in[12]
*119 la_data_in[13]
*120 la_data_in[14]
*121 la_data_in[15]
*122 la_data_in[16]
*123 la_data_in[17]
*124 la_data_in[18]
*125 la_data_in[19]
*126 la_data_in[1]
*127 la_data_in[20]
*128 la_data_in[21]
*129 la_data_in[22]
*130 la_data_in[23]
*131 la_data_in[24]
*132 la_data_in[25]
*133 la_data_in[26]
*134 la_data_in[27]
*135 la_data_in[28]
*136 la_data_in[29]
*137 la_data_in[2]
*138 la_data_in[30]
*139 la_data_in[31]
*140 la_data_in[32]
*141 la_data_in[33]
*142 la_data_in[34]
*143 la_data_in[35]
*144 la_data_in[36]
*145 la_data_in[37]
*146 la_data_in[38]
*147 la_data_in[39]
*148 la_data_in[3]
*149 la_data_in[40]
*150 la_data_in[41]
*151 la_data_in[42]
*152 la_data_in[43]
*153 la_data_in[44]
*154 la_data_in[45]
*155 la_data_in[46]
*156 la_data_in[47]
*157 la_data_in[48]
*158 la_data_in[49]
*159 la_data_in[4]
*160 la_data_in[50]
*161 la_data_in[51]
*162 la_data_in[52]
*163 la_data_in[53]
*164 la_data_in[54]
*165 la_data_in[55]
*166 la_data_in[56]
*167 la_data_in[57]
*168 la_data_in[58]
*169 la_data_in[59]
*170 la_data_in[5]
*171 la_data_in[60]
*172 la_data_in[61]
*173 la_data_in[62]
*174 la_data_in[63]
*175 la_data_in[6]
*176 la_data_in[7]
*177 la_data_in[8]
*178 la_data_in[9]
*179 la_data_out[0]
*180 la_data_out[10]
*181 la_data_out[11]
*182 la_data_out[12]
*183 la_data_out[13]
*184 la_data_out[14]
*185 la_data_out[15]
*186 la_data_out[16]
*187 la_data_out[17]
*188 la_data_out[18]
*189 la_data_out[19]
*190 la_data_out[1]
*191 la_data_out[20]
*192 la_data_out[21]
*193 la_data_out[22]
*194 la_data_out[23]
*195 la_data_out[24]
*196 la_data_out[25]
*197 la_data_out[26]
*198 la_data_out[27]
*199 la_data_out[28]
*200 la_data_out[29]
*201 la_data_out[2]
*202 la_data_out[30]
*203 la_data_out[31]
*204 la_data_out[32]
*205 la_data_out[33]
*206 la_data_out[34]
*207 la_data_out[35]
*208 la_data_out[36]
*209 la_data_out[37]
*210 la_data_out[38]
*211 la_data_out[39]
*212 la_data_out[3]
*213 la_data_out[40]
*214 la_data_out[41]
*215 la_data_out[42]
*216 la_data_out[43]
*217 la_data_out[44]
*218 la_data_out[45]
*219 la_data_out[46]
*220 la_data_out[47]
*221 la_data_out[48]
*222 la_data_out[49]
*223 la_data_out[4]
*224 la_data_out[50]
*225 la_data_out[51]
*226 la_data_out[52]
*227 la_data_out[53]
*228 la_data_out[54]
*229 la_data_out[55]
*230 la_data_out[56]
*231 la_data_out[57]
*232 la_data_out[58]
*233 la_data_out[59]
*234 la_data_out[5]
*235 la_data_out[60]
*236 la_data_out[61]
*237 la_data_out[62]
*238 la_data_out[63]
*239 la_data_out[6]
*240 la_data_out[7]
*241 la_data_out[8]
*242 la_data_out[9]
*243 la_oenb[0]
*244 la_oenb[10]
*245 la_oenb[11]
*246 la_oenb[12]
*247 la_oenb[13]
*248 la_oenb[14]
*249 la_oenb[15]
*250 la_oenb[16]
*251 la_oenb[17]
*252 la_oenb[18]
*253 la_oenb[19]
*254 la_oenb[1]
*255 la_oenb[20]
*256 la_oenb[21]
*257 la_oenb[22]
*258 la_oenb[23]
*259 la_oenb[24]
*260 la_oenb[25]
*261 la_oenb[26]
*262 la_oenb[27]
*263 la_oenb[28]
*264 la_oenb[29]
*265 la_oenb[2]
*266 la_oenb[30]
*267 la_oenb[31]
*268 la_oenb[32]
*269 la_oenb[33]
*270 la_oenb[34]
*271 la_oenb[35]
*272 la_oenb[36]
*273 la_oenb[37]
*274 la_oenb[38]
*275 la_oenb[39]
*276 la_oenb[3]
*277 la_oenb[40]
*278 la_oenb[41]
*279 la_oenb[42]
*280 la_oenb[43]
*281 la_oenb[44]
*282 la_oenb[45]
*283 la_oenb[46]
*284 la_oenb[47]
*285 la_oenb[48]
*286 la_oenb[49]
*287 la_oenb[4]
*288 la_oenb[50]
*289 la_oenb[51]
*290 la_oenb[52]
*291 la_oenb[53]
*292 la_oenb[54]
*293 la_oenb[55]
*294 la_oenb[56]
*295 la_oenb[57]
*296 la_oenb[58]
*297 la_oenb[59]
*298 la_oenb[5]
*299 la_oenb[60]
*300 la_oenb[61]
*301 la_oenb[62]
*302 la_oenb[63]
*303 la_oenb[6]
*304 la_oenb[7]
*305 la_oenb[8]
*306 la_oenb[9]
*307 user_clock2
*308 user_irq[0]
*309 user_irq[1]
*310 user_irq[2]
*313 wb_clk_i
*314 wb_rst_i
*315 wbs_ack_o
*316 wbs_adr_i[0]
*317 wbs_adr_i[10]
*318 wbs_adr_i[11]
*319 wbs_adr_i[12]
*320 wbs_adr_i[13]
*321 wbs_adr_i[14]
*322 wbs_adr_i[15]
*323 wbs_adr_i[16]
*324 wbs_adr_i[17]
*325 wbs_adr_i[18]
*326 wbs_adr_i[19]
*327 wbs_adr_i[1]
*328 wbs_adr_i[20]
*329 wbs_adr_i[21]
*330 wbs_adr_i[22]
*331 wbs_adr_i[23]
*332 wbs_adr_i[24]
*333 wbs_adr_i[25]
*334 wbs_adr_i[26]
*335 wbs_adr_i[27]
*336 wbs_adr_i[28]
*337 wbs_adr_i[29]
*338 wbs_adr_i[2]
*339 wbs_adr_i[30]
*340 wbs_adr_i[31]
*341 wbs_adr_i[3]
*342 wbs_adr_i[4]
*343 wbs_adr_i[5]
*344 wbs_adr_i[6]
*345 wbs_adr_i[7]
*346 wbs_adr_i[8]
*347 wbs_adr_i[9]
*348 wbs_cyc_i
*349 wbs_dat_i[0]
*350 wbs_dat_i[10]
*351 wbs_dat_i[11]
*352 wbs_dat_i[12]
*353 wbs_dat_i[13]
*354 wbs_dat_i[14]
*355 wbs_dat_i[15]
*356 wbs_dat_i[16]
*357 wbs_dat_i[17]
*358 wbs_dat_i[18]
*359 wbs_dat_i[19]
*360 wbs_dat_i[1]
*361 wbs_dat_i[20]
*362 wbs_dat_i[21]
*363 wbs_dat_i[22]
*364 wbs_dat_i[23]
*365 wbs_dat_i[24]
*366 wbs_dat_i[25]
*367 wbs_dat_i[26]
*368 wbs_dat_i[27]
*369 wbs_dat_i[28]
*370 wbs_dat_i[29]
*371 wbs_dat_i[2]
*372 wbs_dat_i[30]
*373 wbs_dat_i[31]
*374 wbs_dat_i[3]
*375 wbs_dat_i[4]
*376 wbs_dat_i[5]
*377 wbs_dat_i[6]
*378 wbs_dat_i[7]
*379 wbs_dat_i[8]
*380 wbs_dat_i[9]
*381 wbs_dat_o[0]
*382 wbs_dat_o[10]
*383 wbs_dat_o[11]
*384 wbs_dat_o[12]
*385 wbs_dat_o[13]
*386 wbs_dat_o[14]
*387 wbs_dat_o[15]
*388 wbs_dat_o[16]
*389 wbs_dat_o[17]
*390 wbs_dat_o[18]
*391 wbs_dat_o[19]
*392 wbs_dat_o[1]
*393 wbs_dat_o[20]
*394 wbs_dat_o[21]
*395 wbs_dat_o[22]
*396 wbs_dat_o[23]
*397 wbs_dat_o[24]
*398 wbs_dat_o[25]
*399 wbs_dat_o[26]
*400 wbs_dat_o[27]
*401 wbs_dat_o[28]
*402 wbs_dat_o[29]
*403 wbs_dat_o[2]
*404 wbs_dat_o[30]
*405 wbs_dat_o[31]
*406 wbs_dat_o[3]
*407 wbs_dat_o[4]
*408 wbs_dat_o[5]
*409 wbs_dat_o[6]
*410 wbs_dat_o[7]
*411 wbs_dat_o[8]
*412 wbs_dat_o[9]
*413 wbs_sel_i[0]
*414 wbs_sel_i[1]
*415 wbs_sel_i[2]
*416 wbs_sel_i[3]
*417 wbs_stb_i
*418 wbs_we_i
*419 mprj

*PORTS
io_in[0] I
io_in[10] I
io_in[11] I
io_in[12] I
io_in[13] I
io_in[14] I
io_in[15] I
io_in[16] I
io_in[17] I
io_in[18] I
io_in[19] I
io_in[1] I
io_in[20] I
io_in[21] I
io_in[22] I
io_in[23] I
io_in[24] I
io_in[25] I
io_in[26] I
io_in[27] I
io_in[28] I
io_in[29] I
io_in[2] I
io_in[30] I
io_in[31] I
io_in[32] I
io_in[33] I
io_in[34] I
io_in[35] I
io_in[36] I
io_in[37] I
io_in[3] I
io_in[4] I
io_in[5] I
io_in[6] I
io_in[7] I
io_in[8] I
io_in[9] I
io_oeb[0] O
io_oeb[10] O
io_oeb[11] O
io_oeb[12] O
io_oeb[13] O
io_oeb[14] O
io_oeb[15] O
io_oeb[16] O
io_oeb[17] O
io_oeb[18] O
io_oeb[19] O
io_oeb[1] O
io_oeb[20] O
io_oeb[21] O
io_oeb[22] O
io_oeb[23] O
io_oeb[24] O
io_oeb[25] O
io_oeb[26] O
io_oeb[27] O
io_oeb[28] O
io_oeb[29] O
io_oeb[2] O
io_oeb[30] O
io_oeb[31] O
io_oeb[32] O
io_oeb[33] O
io_oeb[34] O
io_oeb[35] O
io_oeb[36] O
io_oeb[37] O
io_oeb[3] O
io_oeb[4] O
io_oeb[5] O
io_oeb[6] O
io_oeb[7] O
io_oeb[8] O
io_oeb[9] O
io_out[0] O
io_out[10] O
io_out[11] O
io_out[12] O
io_out[13] O
io_out[14] O
io_out[15] O
io_out[16] O
io_out[17] O
io_out[18] O
io_out[19] O
io_out[1] O
io_out[20] O
io_out[21] O
io_out[22] O
io_out[23] O
io_out[24] O
io_out[25] O
io_out[26] O
io_out[27] O
io_out[28] O
io_out[29] O
io_out[2] O
io_out[30] O
io_out[31] O
io_out[32] O
io_out[33] O
io_out[34] O
io_out[35] O
io_out[36] O
io_out[37] O
io_out[3] O
io_out[4] O
io_out[5] O
io_out[6] O
io_out[7] O
io_out[8] O
io_out[9] O
la_data_in[0] I
la_data_in[10] I
la_data_in[11] I
la_data_in[12] I
la_data_in[13] I
la_data_in[14] I
la_data_in[15] I
la_data_in[16] I
la_data_in[17] I
la_data_in[18] I
la_data_in[19] I
la_data_in[1] I
la_data_in[20] I
la_data_in[21] I
la_data_in[22] I
la_data_in[23] I
la_data_in[24] I
la_data_in[25] I
la_data_in[26] I
la_data_in[27] I
la_data_in[28] I
la_data_in[29] I
la_data_in[2] I
la_data_in[30] I
la_data_in[31] I
la_data_in[32] I
la_data_in[33] I
la_data_in[34] I
la_data_in[35] I
la_data_in[36] I
la_data_in[37] I
la_data_in[38] I
la_data_in[39] I
la_data_in[3] I
la_data_in[40] I
la_data_in[41] I
la_data_in[42] I
la_data_in[43] I
la_data_in[44] I
la_data_in[45] I
la_data_in[46] I
la_data_in[47] I
la_data_in[48] I
la_data_in[49] I
la_data_in[4] I
la_data_in[50] I
la_data_in[51] I
la_data_in[52] I
la_data_in[53] I
la_data_in[54] I
la_data_in[55] I
la_data_in[56] I
la_data_in[57] I
la_data_in[58] I
la_data_in[59] I
la_data_in[5] I
la_data_in[60] I
la_data_in[61] I
la_data_in[62] I
la_data_in[63] I
la_data_in[6] I
la_data_in[7] I
la_data_in[8] I
la_data_in[9] I
la_data_out[0] O
la_data_out[10] O
la_data_out[11] O
la_data_out[12] O
la_data_out[13] O
la_data_out[14] O
la_data_out[15] O
la_data_out[16] O
la_data_out[17] O
la_data_out[18] O
la_data_out[19] O
la_data_out[1] O
la_data_out[20] O
la_data_out[21] O
la_data_out[22] O
la_data_out[23] O
la_data_out[24] O
la_data_out[25] O
la_data_out[26] O
la_data_out[27] O
la_data_out[28] O
la_data_out[29] O
la_data_out[2] O
la_data_out[30] O
la_data_out[31] O
la_data_out[32] O
la_data_out[33] O
la_data_out[34] O
la_data_out[35] O
la_data_out[36] O
la_data_out[37] O
la_data_out[38] O
la_data_out[39] O
la_data_out[3] O
la_data_out[40] O
la_data_out[41] O
la_data_out[42] O
la_data_out[43] O
la_data_out[44] O
la_data_out[45] O
la_data_out[46] O
la_data_out[47] O
la_data_out[48] O
la_data_out[49] O
la_data_out[4] O
la_data_out[50] O
la_data_out[51] O
la_data_out[52] O
la_data_out[53] O
la_data_out[54] O
la_data_out[55] O
la_data_out[56] O
la_data_out[57] O
la_data_out[58] O
la_data_out[59] O
la_data_out[5] O
la_data_out[60] O
la_data_out[61] O
la_data_out[62] O
la_data_out[63] O
la_data_out[6] O
la_data_out[7] O
la_data_out[8] O
la_data_out[9] O
la_oenb[0] I
la_oenb[10] I
la_oenb[11] I
la_oenb[12] I
la_oenb[13] I
la_oenb[14] I
la_oenb[15] I
la_oenb[16] I
la_oenb[17] I
la_oenb[18] I
la_oenb[19] I
la_oenb[1] I
la_oenb[20] I
la_oenb[21] I
la_oenb[22] I
la_oenb[23] I
la_oenb[24] I
la_oenb[25] I
la_oenb[26] I
la_oenb[27] I
la_oenb[28] I
la_oenb[29] I
la_oenb[2] I
la_oenb[30] I
la_oenb[31] I
la_oenb[32] I
la_oenb[33] I
la_oenb[34] I
la_oenb[35] I
la_oenb[36] I
la_oenb[37] I
la_oenb[38] I
la_oenb[39] I
la_oenb[3] I
la_oenb[40] I
la_oenb[41] I
la_oenb[42] I
la_oenb[43] I
la_oenb[44] I
la_oenb[45] I
la_oenb[46] I
la_oenb[47] I
la_oenb[48] I
la_oenb[49] I
la_oenb[4] I
la_oenb[50] I
la_oenb[51] I
la_oenb[52] I
la_oenb[53] I
la_oenb[54] I
la_oenb[55] I
la_oenb[56] I
la_oenb[57] I
la_oenb[58] I
la_oenb[59] I
la_oenb[5] I
la_oenb[60] I
la_oenb[61] I
la_oenb[62] I
la_oenb[63] I
la_oenb[6] I
la_oenb[7] I
la_oenb[8] I
la_oenb[9] I
user_clock2 I
user_irq[0] O
user_irq[1] O
user_irq[2] O
wb_clk_i I
wb_rst_i I
wbs_ack_o O
wbs_adr_i[0] I
wbs_adr_i[10] I
wbs_adr_i[11] I
wbs_adr_i[12] I
wbs_adr_i[13] I
wbs_adr_i[14] I
wbs_adr_i[15] I
wbs_adr_i[16] I
wbs_adr_i[17] I
wbs_adr_i[18] I
wbs_adr_i[19] I
wbs_adr_i[1] I
wbs_adr_i[20] I
wbs_adr_i[21] I
wbs_adr_i[22] I
wbs_adr_i[23] I
wbs_adr_i[24] I
wbs_adr_i[25] I
wbs_adr_i[26] I
wbs_adr_i[27] I
wbs_adr_i[28] I
wbs_adr_i[29] I
wbs_adr_i[2] I
wbs_adr_i[30] I
wbs_adr_i[31] I
wbs_adr_i[3] I
wbs_adr_i[4] I
wbs_adr_i[5] I
wbs_adr_i[6] I
wbs_adr_i[7] I
wbs_adr_i[8] I
wbs_adr_i[9] I
wbs_cyc_i I
wbs_dat_i[0] I
wbs_dat_i[10] I
wbs_dat_i[11] I
wbs_dat_i[12] I
wbs_dat_i[13] I
wbs_dat_i[14] I
wbs_dat_i[15] I
wbs_dat_i[16] I
wbs_dat_i[17] I
wbs_dat_i[18] I
wbs_dat_i[19] I
wbs_dat_i[1] I
wbs_dat_i[20] I
wbs_dat_i[21] I
wbs_dat_i[22] I
wbs_dat_i[23] I
wbs_dat_i[24] I
wbs_dat_i[25] I
wbs_dat_i[26] I
wbs_dat_i[27] I
wbs_dat_i[28] I
wbs_dat_i[29] I
wbs_dat_i[2] I
wbs_dat_i[30] I
wbs_dat_i[31] I
wbs_dat_i[3] I
wbs_dat_i[4] I
wbs_dat_i[5] I
wbs_dat_i[6] I
wbs_dat_i[7] I
wbs_dat_i[8] I
wbs_dat_i[9] I
wbs_dat_o[0] O
wbs_dat_o[10] O
wbs_dat_o[11] O
wbs_dat_o[12] O
wbs_dat_o[13] O
wbs_dat_o[14] O
wbs_dat_o[15] O
wbs_dat_o[16] O
wbs_dat_o[17] O
wbs_dat_o[18] O
wbs_dat_o[19] O
wbs_dat_o[1] O
wbs_dat_o[20] O
wbs_dat_o[21] O
wbs_dat_o[22] O
wbs_dat_o[23] O
wbs_dat_o[24] O
wbs_dat_o[25] O
wbs_dat_o[26] O
wbs_dat_o[27] O
wbs_dat_o[28] O
wbs_dat_o[29] O
wbs_dat_o[2] O
wbs_dat_o[30] O
wbs_dat_o[31] O
wbs_dat_o[3] O
wbs_dat_o[4] O
wbs_dat_o[5] O
wbs_dat_o[6] O
wbs_dat_o[7] O
wbs_dat_o[8] O
wbs_dat_o[9] O
wbs_sel_i[0] I
wbs_sel_i[1] I
wbs_sel_i[2] I
wbs_sel_i[3] I
wbs_stb_i I
wbs_we_i I

*D_NET *1 0.0109227
*CONN
*P io_in[0] I
*I *419:io_in[0] I *D tjrpu
*CAP
1 io_in[0] 0.00546133
2 *419:io_in[0] 0.00546133
*RES
1 io_in[0] *419:io_in[0] 47.152 
*END

*D_NET *12 0.0121838
*CONN
*P io_in[1] I
*I *419:io_in[1] I *D tjrpu
*CAP
1 io_in[1] 0.00312536
2 *419:io_in[1] 0.00296656
3 *12:11 0.00609192
*RES
1 io_in[1] *12:11 30.85 
2 *12:11 *419:io_in[1] 21.774 
*END

*D_NET *23 0.0138404
*CONN
*P io_in[2] I
*I *419:io_in[2] I *D tjrpu
*CAP
1 io_in[2] 0.00626502
2 *419:io_in[2] 0.000655179
3 *23:9 0.0069202
*RES
1 io_in[2] *23:9 49.15 
2 *23:9 *419:io_in[2] 9.25 
*END

*D_NET *24 0.0100796
*CONN
*P io_in[30] I
*I *419:io_in[8] I *D tjrpu
*CAP
1 io_in[30] 0.00503979
2 *419:io_in[8] 0.00503979
*RES
1 io_in[30] *419:io_in[8] 42.744 
*END

*D_NET *25 0.00927873
*CONN
*P io_in[31] I
*I *419:io_in[9] I *D tjrpu
*CAP
1 io_in[31] 0.00463936
2 *419:io_in[9] 0.00463936
*RES
1 io_in[31] *419:io_in[9] 40.92 
*END

*D_NET *26 0.00866448
*CONN
*P io_in[32] I
*I *419:io_in[10] I *D tjrpu
*CAP
1 io_in[32] 0.00433224
2 *419:io_in[10] 0.00433224
*RES
1 io_in[32] *419:io_in[10] 39.248 
*END

*D_NET *27 0.00932899
*CONN
*P io_in[33] I
*I *419:io_in[11] I *D tjrpu
*CAP
1 io_in[33] 0.0046645
2 *419:io_in[11] 0.0046645
*RES
1 io_in[33] *419:io_in[11] 37.272 
*END

*D_NET *28 0.00824806
*CONN
*P io_in[34] I
*I *419:io_in[12] I *D tjrpu
*CAP
1 io_in[34] 0.00412403
2 *419:io_in[12] 0.00412403
*RES
1 io_in[34] *419:io_in[12] 35.448 
*END

*D_NET *29 0.00703695
*CONN
*P io_in[35] I
*I *419:io_in[13] I *D tjrpu
*CAP
1 io_in[35] 0.00351848
2 *419:io_in[13] 0.00351848
*RES
1 io_in[35] *419:io_in[13] 33.624 
*END

*D_NET *30 0.00673343
*CONN
*P io_in[36] I
*I *419:io_in[14] I *D tjrpu
*CAP
1 io_in[36] 0.00336672
2 *419:io_in[14] 0.00336672
*RES
1 io_in[36] *419:io_in[14] 31.8 
*END

*D_NET *31 0.00625943
*CONN
*P io_in[37] I
*I *419:io_in[15] I *D tjrpu
*CAP
1 io_in[37] 0.00312972
2 *419:io_in[15] 0.00312972
*RES
1 io_in[37] *419:io_in[15] 30.128 
*END

*D_NET *32 0.0176313
*CONN
*P io_in[3] I
*I *419:io_in[3] I *D tjrpu
*CAP
1 io_in[3] 0.0039423
2 *419:io_in[3] 0.0033136
3 *32:7 0.0072559
4 *419:io_in[3] *61:11 0.0011714
5 *419:io_in[3] *108:11 0.00194814
*RES
1 io_in[3] *32:7 32.05 
2 *32:7 *419:io_in[3] 31.822 
*END

*D_NET *33 0.0205293
*CONN
*P io_in[4] I
*I *419:io_in[4] I *D tjrpu
*CAP
1 io_in[4] 0.00388734
2 *419:io_in[4] 0.00342407
3 *33:7 0.00731141
4 *419:io_in[4] *70:11 0.00171103
5 *419:io_in[4] *109:11 0.0041954
*RES
1 io_in[4] *33:7 31.746 
2 *33:7 *419:io_in[4] 37.598 
*END

*D_NET *34 0.0228684
*CONN
*P io_in[5] I
*I *419:io_in[5] I *D tjrpu
*CAP
1 io_in[5] 0.00390798
2 *419:io_in[5] 0.0035432
3 *34:7 0.00745118
4 *419:io_in[5] *71:11 0.00572814
5 *419:io_in[5] *110:11 0.00223792
*RES
1 io_in[5] *34:7 31.898 
2 *34:7 *419:io_in[5] 42.918 
*END

*D_NET *35 0.0272767
*CONN
*P io_in[6] I
*I *419:io_in[6] I *D tjrpu
*CAP
1 io_in[6] 0.00388006
2 *419:io_in[6] 0.00345167
3 *35:7 0.00733173
4 *419:io_in[6] *72:9 0.00379912
5 *419:io_in[6] *111:11 0.00878848
6 *35:7 *110:11 2.56154e-05
*RES
1 io_in[6] *35:7 31.746 
2 *35:7 *419:io_in[6] 48.542 
*END

*D_NET *36 0.031409
*CONN
*P io_in[7] I
*I *419:io_in[7] I *D tjrpu
*CAP
1 io_in[7] 0.00388734
2 *419:io_in[7] 0.000723819
3 *36:11 0.0039235
4 *36:7 0.00708703
5 *36:11 *73:11 0.00272421
6 *36:11 *111:11 0.00207637
7 *36:11 *112:9 0.0109868
*RES
1 io_in[7] *36:7 31.746 
2 *36:7 *36:11 48.96 
3 *36:11 *419:io_in[7] 5.054 
*END

*D_NET *39 0.0118453
*CONN
*P io_oeb[0] O
*I *419:io_oeb[0] O *D tjrpu
*CAP
1 io_oeb[0] 0.00161724
2 *419:io_oeb[0] 0.00430539
3 *39:11 0.00592263
*RES
1 *419:io_oeb[0] *39:11 40.274 
2 *39:11 io_oeb[0] 10.526 
*END

*D_NET *50 0.0135369
*CONN
*P io_oeb[1] O
*I *419:io_oeb[1] O *D tjrpu
*CAP
1 io_oeb[1] 0.00392862
2 *419:io_oeb[1] 0.00283982
3 *50:11 0.00676844
*RES
1 *419:io_oeb[1] *50:11 29.026 
2 *50:11 io_oeb[1] 27.55 
*END

*D_NET *61 0.0158042
*CONN
*P io_oeb[2] O
*I *419:io_oeb[2] O *D tjrpu
*CAP
1 io_oeb[2] 0.00391758
2 *419:io_oeb[2] 0.00329599
3 *61:11 0.00721357
4 io_oeb[2] *99:11 8.5948e-06
5 *61:11 *99:11 0.000197035
6 *419:io_in[3] *61:11 0.0011714
*RES
1 *419:io_oeb[2] *61:11 34.65 
2 *61:11 io_oeb[2] 27.398 
*END

*D_NET *62 0.00943834
*CONN
*P io_oeb[30] O
*I *419:io_oeb[8] O *D tjrpu
*CAP
1 io_oeb[30] 0.00471917
2 *419:io_oeb[8] 0.00471917
*RES
1 *419:io_oeb[8] io_oeb[30] 41.528 
*END

*D_NET *63 0.010107
*CONN
*P io_oeb[31] O
*I *419:io_oeb[9] O *D tjrpu
*CAP
1 io_oeb[31] 0.00505348
2 *419:io_oeb[9] 0.00505348
*RES
1 *419:io_oeb[9] io_oeb[31] 39.704 
*END

*D_NET *64 0.00868669
*CONN
*P io_oeb[32] O
*I *419:io_oeb[10] O *D tjrpu
*CAP
1 io_oeb[32] 0.00434335
2 *419:io_oeb[10] 0.00434335
*RES
1 *419:io_oeb[10] io_oeb[32] 37.88 
*END

*D_NET *65 0.00806671
*CONN
*P io_oeb[33] O
*I *419:io_oeb[11] O *D tjrpu
*CAP
1 io_oeb[33] 0.00403335
2 *419:io_oeb[11] 0.00403335
*RES
1 *419:io_oeb[11] io_oeb[33] 36.208 
*END

*D_NET *66 0.0079496
*CONN
*P io_oeb[34] O
*I *419:io_oeb[12] O *D tjrpu
*CAP
1 io_oeb[34] 0.0039748
2 *419:io_oeb[12] 0.0039748
*RES
1 *419:io_oeb[12] io_oeb[34] 34.232 
*END

*D_NET *67 0.00685798
*CONN
*P io_oeb[35] O
*I *419:io_oeb[13] O *D tjrpu
*CAP
1 io_oeb[35] 0.00342899
2 *419:io_oeb[13] 0.00342899
*RES
1 *419:io_oeb[13] io_oeb[35] 32.408 
*END

*D_NET *68 0.00624977
*CONN
*P io_oeb[36] O
*I *419:io_oeb[14] O *D tjrpu
*CAP
1 io_oeb[36] 0.00312489
2 *419:io_oeb[14] 0.00312489
*RES
1 *419:io_oeb[14] io_oeb[36] 30.584 
*END

*D_NET *69 0.00593538
*CONN
*P io_oeb[37] O
*I *419:io_oeb[15] O *D tjrpu
*CAP
1 io_oeb[37] 0.00296769
2 *419:io_oeb[15] 0.00296769
*RES
1 *419:io_oeb[15] io_oeb[37] 28.76 
*END

*D_NET *70 0.0191441
*CONN
*P io_oeb[3] O
*I *419:io_oeb[3] O *D tjrpu
*CAP
1 io_oeb[3] 0.0039423
2 *419:io_oeb[3] 0.00345262
3 *70:11 0.00739492
4 *70:11 *108:11 0.00264326
5 *419:io_in[4] *70:11 0.00171103
*RES
1 *419:io_oeb[3] *70:11 39.97 
2 *70:11 io_oeb[3] 27.55 
*END

*D_NET *71 0.0252051
*CONN
*P io_oeb[4] O
*I *419:io_oeb[4] O *D tjrpu
*CAP
1 io_oeb[4] 0.0039423
2 *419:io_oeb[4] 0.00328704
3 *71:11 0.00722934
4 *71:11 *109:11 0.0050183
5 *419:io_in[5] *71:11 0.00572814
*RES
1 *419:io_oeb[4] *71:11 45.442 
2 *71:11 io_oeb[4] 27.55 
*END

*D_NET *72 0.0215645
*CONN
*P io_oeb[5] O
*I *419:io_oeb[5] O *D tjrpu
*CAP
1 io_oeb[5] 0.00394229
2 *419:io_oeb[5] 0.00376945
3 *72:9 0.00771174
4 *72:9 *110:11 0.00180431
5 *72:9 *111:11 0.000537611
6 *419:io_in[6] *72:9 0.00379912
*RES
1 *419:io_oeb[5] *72:9 46.262 
2 *72:9 io_oeb[5] 32.05 
*END

*D_NET *73 0.0304034
*CONN
*P io_oeb[6] O
*I *419:io_oeb[6] O *D tjrpu
*CAP
1 io_oeb[6] 0.00395598
2 *419:io_oeb[6] 0.000655179
3 *73:11 0.0070385
4 *73:7 0.0037377
5 *73:11 *111:11 0.00950434
6 *73:11 *112:9 0.00278747
7 *36:11 *73:11 0.00272421
*RES
1 *419:io_oeb[6] *73:7 9.25 
2 *73:7 *73:11 47.136 
3 *73:11 io_oeb[6] 27.55 
*END

*D_NET *74 0.0308579
*CONN
*P io_oeb[7] O
*I *419:io_oeb[7] O *D tjrpu
*CAP
1 io_oeb[7] 0.00395598
2 *419:io_oeb[7] 0.000810683
3 *74:9 0.00871203
4 *74:7 0.00556673
5 *74:9 *112:9 0.0118125
*RES
1 *419:io_oeb[7] *74:7 9.25 
2 *74:7 *74:9 48.108 
3 *74:9 io_oeb[7] 32.05 
*END

*D_NET *77 0.0113664
*CONN
*P io_out[0] O
*I *419:io_out[0] O *D tjrpu
*CAP
1 io_out[0] 0.00568321
2 *419:io_out[0] 0.00568321
*RES
1 *419:io_out[0] io_out[0] 48.976 
*END

*D_NET *88 0.012838
*CONN
*P io_out[1] O
*I *419:io_out[1] O *D tjrpu
*CAP
1 io_out[1] 0.00190616
2 *419:io_out[1] 0.00451284
3 *88:11 0.006419
*RES
1 *419:io_out[1] *88:11 41.794 
2 *88:11 io_out[1] 12.654 
*END

*D_NET *99 0.0146201
*CONN
*P io_out[2] O
*I *419:io_out[2] O *D tjrpu
*CAP
1 io_out[2] 0.00386671
2 *419:io_out[2] 0.00334054
3 *99:11 0.00720725
4 io_oeb[2] *99:11 8.5948e-06
5 *61:11 *99:11 0.000197035
*RES
1 *419:io_out[2] *99:11 33.13 
2 *99:11 io_out[2] 27.094 
*END

*D_NET *100 0.00946254
*CONN
*P io_out[30] O
*I *419:io_out[8] O *D tjrpu
*CAP
1 io_out[30] 0.00473127
2 *419:io_out[8] 0.00473127
*RES
1 *419:io_out[8] io_out[30] 42.288 
*END

*D_NET *101 0.00897887
*CONN
*P io_out[31] O
*I *419:io_out[9] O *D tjrpu
*CAP
1 io_out[31] 0.00448943
2 *419:io_out[9] 0.00448943
*RES
1 *419:io_out[9] io_out[31] 40.312 
*END

*D_NET *102 0.0102973
*CONN
*P io_out[32] O
*I *419:io_out[10] O *D tjrpu
*CAP
1 io_out[32] 0.00514863
2 *419:io_out[10] 0.00514863
*RES
1 *419:io_out[10] io_out[32] 38.488 
*END

*D_NET *103 0.00784588
*CONN
*P io_out[33] O
*I *419:io_out[11] O *D tjrpu
*CAP
1 io_out[33] 0.00392294
2 *419:io_out[11] 0.00392294
*RES
1 *419:io_out[11] io_out[33] 36.664 
*END

*D_NET *104 0.00753149
*CONN
*P io_out[34] O
*I *419:io_out[12] O *D tjrpu
*CAP
1 io_out[34] 0.00376574
2 *419:io_out[12] 0.00376574
*RES
1 *419:io_out[12] io_out[34] 34.84 
*END

*D_NET *105 0.00705749
*CONN
*P io_out[35] O
*I *419:io_out[13] O *D tjrpu
*CAP
1 io_out[35] 0.00352875
2 *419:io_out[13] 0.00352875
*RES
1 *419:io_out[13] io_out[35] 33.168 
*END

*D_NET *106 0.00639851
*CONN
*P io_out[36] O
*I *419:io_out[14] O *D tjrpu
*CAP
1 io_out[36] 0.00319925
2 *419:io_out[14] 0.00319925
*RES
1 *419:io_out[14] io_out[36] 31.192 
*END

*D_NET *107 0.00593055
*CONN
*P io_out[37] O
*I *419:io_out[15] O *D tjrpu
*CAP
1 io_out[37] 0.00296528
2 *419:io_out[15] 0.00296528
*RES
1 *419:io_out[15] io_out[37] 29.368 
*END

*D_NET *108 0.0190472
*CONN
*P io_out[3] O
*I *419:io_out[3] O *D tjrpu
*CAP
1 io_out[3] 0.00390798
2 *419:io_out[3] 0.00331991
3 *108:11 0.00722789
4 *419:io_in[3] *108:11 0.00194814
5 *70:11 *108:11 0.00264326
*RES
1 *419:io_out[3] *108:11 38.298 
2 *108:11 io_out[3] 27.398 
*END

*D_NET *109 0.0237325
*CONN
*P io_out[4] O
*I *419:io_out[4] O *D tjrpu
*CAP
1 io_out[4] 0.00392166
2 *419:io_out[4] 0.00333773
3 *109:11 0.00725939
4 *419:io_in[4] *109:11 0.0041954
5 *71:11 *109:11 0.0050183
*RES
1 *419:io_out[4] *109:11 43.77 
2 *109:11 io_out[4] 27.398 
*END

*D_NET *110 0.0203289
*CONN
*P io_out[5] O
*I *419:io_out[5] O *D tjrpu
*CAP
1 io_out[5] 0.00384607
2 *419:io_out[5] 0.00428444
3 *110:11 0.00813051
4 *419:io_in[5] *110:11 0.00223792
5 *35:7 *110:11 2.56154e-05
6 *72:9 *110:11 0.00180431
*RES
1 *419:io_out[5] *110:11 49.698 
2 *110:11 io_out[5] 26.942 
*END

*D_NET *111 0.0346429
*CONN
*P io_out[6] O
*I *419:io_out[6] O *D tjrpu
*CAP
1 io_out[6] 0.00392166
2 *419:io_out[6] 0.000689499
3 *111:11 0.00617856
4 *111:7 0.0029464
5 *419:io_in[6] *111:11 0.00878848
6 *36:11 *111:11 0.00207637
7 *72:9 *111:11 0.000537611
8 *73:11 *111:11 0.00950434
*RES
1 *419:io_out[6] *111:7 9.402 
2 *111:7 *111:11 45.312 
3 *111:11 io_out[6] 27.398 
*END

*D_NET *112 0.040924
*CONN
*P io_out[7] O
*I *419:io_out[7] O *D tjrpu
*CAP
1 io_out[7] 0.00476548
2 *419:io_out[7] 0.000689499
3 *112:9 0.00697914
4 *112:7 0.00290316
5 *36:11 *112:9 0.0109868
6 *73:11 *112:9 0.00278747
7 *74:9 *112:9 0.0118125
*RES
1 *419:io_out[7] *112:7 9.402 
2 *112:7 *112:9 46.284 
3 *112:9 io_out[7] 31.898 
*END

*D_NET *115 0.00155678
*CONN
*P la_data_in[0] I
*I *419:la_data_in[0] I *D tjrpu
*CAP
1 la_data_in[0] 0.00077839
2 *419:la_data_in[0] 0.00077839
*RES
1 la_data_in[0] *419:la_data_in[0] 5.852 
*END

*D_NET *116 0.00288985
*CONN
*P la_data_in[10] I
*I *419:la_data_in[10] I *D tjrpu
*CAP
1 la_data_in[10] 0.00144492
2 *419:la_data_in[10] 0.00144492
3 *419:la_data_in[10] la_data_out[9] 0
4 *419:la_data_in[10] *419:la_data_in[11] 0
5 *419:la_data_in[10] *419:la_oenb[10] 0
*RES
1 la_data_in[10] *419:la_data_in[10] 18.842 
*END

*D_NET *117 0.00489995
*CONN
*P la_data_in[11] I
*I *419:la_data_in[11] I *D tjrpu
*CAP
1 la_data_in[11] 0.000900806
2 *419:la_data_in[11] 0.000900806
3 *419:la_data_in[11] la_data_out[10] 0.000288951
4 *419:la_data_in[11] la_data_out[11] 0.00172405
5 *419:la_data_in[11] *419:la_oenb[10] 0.000361681
6 *419:la_data_in[11] *419:la_oenb[11] 0.000723661
7 *419:la_data_in[10] *419:la_data_in[11] 0
*RES
1 la_data_in[11] *419:la_data_in[11] 19.336 
*END

*D_NET *118 0.00498442
*CONN
*P la_data_in[12] I
*I *419:la_data_in[12] I *D tjrpu
*CAP
1 la_data_in[12] 0.0011046
2 *419:la_data_in[12] 0.0011046
3 *419:la_data_in[12] *419:la_data_in[13] 9.88736e-06
4 *419:la_data_in[12] *419:la_oenb[11] 0.00185795
5 *419:la_data_in[12] *419:la_oenb[12] 0.00090738
*RES
1 la_data_in[12] *419:la_data_in[12] 19.792 
*END

*D_NET *119 0.00567146
*CONN
*P la_data_in[13] I
*I *419:la_data_in[13] I *D tjrpu
*CAP
1 la_data_in[13] 0.000916723
2 *419:la_data_in[13] 0.000916723
3 *419:la_data_in[13] la_data_out[13] 0.00046049
4 *419:la_data_in[13] *419:la_data_in[14] 0.000159942
5 *419:la_data_in[13] *419:la_oenb[12] 0.00211204
6 *419:la_data_in[13] *419:la_oenb[13] 0.00109566
7 *419:la_data_in[12] *419:la_data_in[13] 9.88736e-06
*RES
1 la_data_in[13] *419:la_data_in[13] 20.248 
*END

*D_NET *120 0.00565093
*CONN
*P la_data_in[14] I
*I *419:la_data_in[14] I *D tjrpu
*CAP
1 la_data_in[14] 0.000910593
2 *419:la_data_in[14] 0.000910593
3 *419:la_data_in[14] la_data_out[13] 0.00115005
4 *419:la_data_in[14] la_data_out[14] 0
5 *419:la_data_in[14] *419:la_data_in[15] 0.000280957
6 *419:la_data_in[14] *419:la_oenb[13] 0.000961706
7 *419:la_data_in[14] *419:la_oenb[14] 0.0012771
8 *419:la_data_in[13] *419:la_data_in[14] 0.000159942
*RES
1 la_data_in[14] *419:la_data_in[14] 20.704 
*END

*D_NET *121 0.00612876
*CONN
*P la_data_in[15] I
*I *419:la_data_in[15] I *D tjrpu
*CAP
1 la_data_in[15] 0.000807243
2 *419:la_data_in[15] 0.000807243
3 *419:la_data_in[15] la_data_out[14] 0
4 *419:la_data_in[15] la_data_out[15] 0.00248633
5 *419:la_data_in[15] la_data_out[16] 0
6 *419:la_data_in[15] *419:la_data_in[16] 0.000469567
7 *419:la_data_in[15] *419:la_oenb[14] 0.00106627
8 *419:la_data_in[15] *419:la_oenb[15] 0.000211147
9 *419:la_data_in[14] *419:la_data_in[15] 0.000280957
*RES
1 la_data_in[15] *419:la_data_in[15] 21.16 
*END

*D_NET *122 0.00504601
*CONN
*P la_data_in[16] I
*I *419:la_data_in[16] I *D tjrpu
*CAP
1 la_data_in[16] 0.00105066
2 *419:la_data_in[16] 0.00105066
3 *419:la_data_in[16] la_data_out[15] 0.000523602
4 *419:la_data_in[16] la_data_out[16] 0
5 *419:la_data_in[16] *419:la_data_in[17] 0.000660137
6 *419:la_data_in[16] *419:la_oenb[14] 0
7 *419:la_data_in[16] *419:la_oenb[15] 0.00129138
8 *419:la_data_in[15] *419:la_data_in[16] 0.000469567
*RES
1 la_data_in[16] *419:la_data_in[16] 21.616 
*END

*D_NET *123 0.00606686
*CONN
*P la_data_in[17] I
*I *419:la_data_in[17] I *D tjrpu
*CAP
1 la_data_in[17] 0.00126163
2 *419:la_data_in[17] 0.00126163
3 *419:la_data_in[17] la_data_out[17] 0.00288346
4 *419:la_data_in[17] *419:la_oenb[15] 0
5 *419:la_data_in[16] *419:la_data_in[17] 0.000660137
*RES
1 la_data_in[17] *419:la_data_in[17] 22.072 
*END

*D_NET *124 0.00598584
*CONN
*P la_data_in[18] I
*I *419:la_data_in[18] I *D tjrpu
*CAP
1 la_data_in[18] 0.00133721
2 *419:la_data_in[18] 0.00133721
3 *419:la_data_in[18] la_data_out[18] 0
4 *419:la_data_in[18] la_data_out[19] 1.67501e-05
5 *419:la_data_in[18] *419:la_data_in[19] 0.000220634
6 *419:la_data_in[18] *419:la_oenb[17] 0.00307403
*RES
1 la_data_in[18] *419:la_data_in[18] 22.528 
*END

*D_NET *125 0.0069638
*CONN
*P la_data_in[19] I
*I *419:la_data_in[19] I *D tjrpu
*CAP
1 la_data_in[19] 0.00133058
2 *419:la_data_in[19] 0.00133058
3 *419:la_data_in[19] la_data_out[19] 0.00284919
4 *419:la_data_in[19] *419:la_data_in[20] 0.00122271
5 *419:la_data_in[19] *419:la_oenb[17] 1.0115e-05
6 *419:la_data_in[18] *419:la_data_in[19] 0.000220634
*RES
1 la_data_in[19] *419:la_data_in[19] 23.06 
*END

*D_NET *126 0.00169872
*CONN
*P la_data_in[1] I
*I *419:la_data_in[1] I *D tjrpu
*CAP
1 la_data_in[1] 0.000849361
2 *419:la_data_in[1] 0.000849361
3 *419:la_data_in[1] la_data_out[1] 0
4 *419:la_data_in[1] *419:la_oenb[0] 0
*RES
1 la_data_in[1] *419:la_data_in[1] 6.308 
*END

*D_NET *127 0.00539918
*CONN
*P la_data_in[20] I
*I *419:la_data_in[20] I *D tjrpu
*CAP
1 la_data_in[20] 0.00136663
2 *419:la_data_in[20] 0.00136663
3 *419:la_data_in[20] la_data_out[19] 0.000533137
4 *419:la_data_in[20] la_data_out[20] 0
5 *419:la_data_in[20] la_data_out[21] 0.000200335
6 *419:la_data_in[20] *419:la_oenb[18] 0.000337662
7 *419:la_data_in[20] *419:la_oenb[19] 0.000372082
8 *419:la_data_in[19] *419:la_data_in[20] 0.00122271
*RES
1 la_data_in[20] *419:la_data_in[20] 23.44 
*END

*D_NET *128 0.00640815
*CONN
*P la_data_in[21] I
*I *419:la_data_in[21] I *D tjrpu