*SPEF "ieee 1481-1999"
*DESIGN "user_project_wrapper"
*DATE "11:11:11 Fri 11 11, 1111"
*VENDOR "OpenRCX"
*PROGRAM "Parallel Extraction"
*VERSION "1.0"
*DESIGN_FLOW "NAME_SCOPE LOCAL" "PIN_CAP NONE"
*DIVIDER /
*DELIMITER :
*BUS_DELIMITER []
*T_UNIT 1 NS
*C_UNIT 1 PF
*R_UNIT 1 OHM
*L_UNIT 1 HENRY

*NAME_MAP
*1 io_in[0]
*2 io_in[10]
*3 io_in[11]
*4 io_in[12]
*5 io_in[13]
*6 io_in[14]
*7 io_in[15]
*8 io_in[16]
*9 io_in[17]
*10 io_in[18]
*11 io_in[19]
*12 io_in[1]
*13 io_in[20]
*14 io_in[21]
*15 io_in[22]
*16 io_in[23]
*17 io_in[24]
*18 io_in[25]
*19 io_in[26]
*20 io_in[27]
*21 io_in[28]
*22 io_in[29]
*23 io_in[2]
*24 io_in[30]
*25 io_in[31]
*26 io_in[32]
*27 io_in[33]
*28 io_in[34]
*29 io_in[35]
*30 io_in[36]
*31 io_in[37]
*32 io_in[3]
*33 io_in[4]
*34 io_in[5]
*35 io_in[6]
*36 io_in[7]
*37 io_in[8]
*38 io_in[9]
*39 io_oeb[0]
*40 io_oeb[10]
*41 io_oeb[11]
*42 io_oeb[12]
*43 io_oeb[13]
*44 io_oeb[14]
*45 io_oeb[15]
*46 io_oeb[16]
*47 io_oeb[17]
*48 io_oeb[18]
*49 io_oeb[19]
*50 io_oeb[1]
*51 io_oeb[20]
*52 io_oeb[21]
*53 io_oeb[22]
*54 io_oeb[23]
*55 io_oeb[24]
*56 io_oeb[25]
*57 io_oeb[26]
*58 io_oeb[27]
*59 io_oeb[28]
*60 io_oeb[29]
*61 io_oeb[2]
*62 io_oeb[30]
*63 io_oeb[31]
*64 io_oeb[32]
*65 io_oeb[33]
*66 io_oeb[34]
*67 io_oeb[35]
*68 io_oeb[36]
*69 io_oeb[37]
*70 io_oeb[3]
*71 io_oeb[4]
*72 io_oeb[5]
*73 io_oeb[6]
*74 io_oeb[7]
*75 io_oeb[8]
*76 io_oeb[9]
*77 io_out[0]
*78 io_out[10]
*79 io_out[11]
*80 io_out[12]
*81 io_out[13]
*82 io_out[14]
*83 io_out[15]
*84 io_out[16]
*85 io_out[17]
*86 io_out[18]
*87 io_out[19]
*88 io_out[1]
*89 io_out[20]
*90 io_out[21]
*91 io_out[22]
*92 io_out[23]
*93 io_out[24]
*94 io_out[25]
*95 io_out[26]
*96 io_out[27]
*97 io_out[28]
*98 io_out[29]
*99 io_out[2]
*100 io_out[30]
*101 io_out[31]
*102 io_out[32]
*103 io_out[33]
*104 io_out[34]
*105 io_out[35]
*106 io_out[36]
*107 io_out[37]
*108 io_out[3]
*109 io_out[4]
*110 io_out[5]
*111 io_out[6]
*112 io_out[7]
*113 io_out[8]
*114 io_out[9]
*115 la_data_in[0]
*116 la_data_in[10]
*117 la_data_in[11]
*118 la_data_in[12]
*119 la_data_in[13]
*120 la_data_in[14]
*121 la_data_in[15]
*122 la_data_in[16]
*123 la_data_in[17]
*124 la_data_in[18]
*125 la_data_in[19]
*126 la_data_in[1]
*127 la_data_in[20]
*128 la_data_in[21]
*129 la_data_in[22]
*130 la_data_in[23]
*131 la_data_in[24]
*132 la_data_in[25]
*133 la_data_in[26]
*134 la_data_in[27]
*135 la_data_in[28]
*136 la_data_in[29]
*137 la_data_in[2]
*138 la_data_in[30]
*139 la_data_in[31]
*140 la_data_in[32]
*141 la_data_in[33]
*142 la_data_in[34]
*143 la_data_in[35]
*144 la_data_in[36]
*145 la_data_in[37]
*146 la_data_in[38]
*147 la_data_in[39]
*148 la_data_in[3]
*149 la_data_in[40]
*150 la_data_in[41]
*151 la_data_in[42]
*152 la_data_in[43]
*153 la_data_in[44]
*154 la_data_in[45]
*155 la_data_in[46]
*156 la_data_in[47]
*157 la_data_in[48]
*158 la_data_in[49]
*159 la_data_in[4]
*160 la_data_in[50]
*161 la_data_in[51]
*162 la_data_in[52]
*163 la_data_in[53]
*164 la_data_in[54]
*165 la_data_in[55]
*166 la_data_in[56]
*167 la_data_in[57]
*168 la_data_in[58]
*169 la_data_in[59]
*170 la_data_in[5]
*171 la_data_in[60]
*172 la_data_in[61]
*173 la_data_in[62]
*174 la_data_in[63]
*175 la_data_in[6]
*176 la_data_in[7]
*177 la_data_in[8]
*178 la_data_in[9]
*179 la_data_out[0]
*180 la_data_out[10]
*181 la_data_out[11]
*182 la_data_out[12]
*183 la_data_out[13]
*184 la_data_out[14]
*185 la_data_out[15]
*186 la_data_out[16]
*187 la_data_out[17]
*188 la_data_out[18]
*189 la_data_out[19]
*190 la_data_out[1]
*191 la_data_out[20]
*192 la_data_out[21]
*193 la_data_out[22]
*194 la_data_out[23]
*195 la_data_out[24]
*196 la_data_out[25]
*197 la_data_out[26]
*198 la_data_out[27]
*199 la_data_out[28]
*200 la_data_out[29]
*201 la_data_out[2]
*202 la_data_out[30]
*203 la_data_out[31]
*204 la_data_out[32]
*205 la_data_out[33]
*206 la_data_out[34]
*207 la_data_out[35]
*208 la_data_out[36]
*209 la_data_out[37]
*210 la_data_out[38]
*211 la_data_out[39]
*212 la_data_out[3]
*213 la_data_out[40]
*214 la_data_out[41]
*215 la_data_out[42]
*216 la_data_out[43]
*217 la_data_out[44]
*218 la_data_out[45]
*219 la_data_out[46]
*220 la_data_out[47]
*221 la_data_out[48]
*222 la_data_out[49]
*223 la_data_out[4]
*224 la_data_out[50]
*225 la_data_out[51]
*226 la_data_out[52]
*227 la_data_out[53]
*228 la_data_out[54]
*229 la_data_out[55]
*230 la_data_out[56]
*231 la_data_out[57]
*232 la_data_out[58]
*233 la_data_out[59]
*234 la_data_out[5]
*235 la_data_out[60]
*236 la_data_out[61]
*237 la_data_out[62]
*238 la_data_out[63]
*239 la_data_out[6]
*240 la_data_out[7]
*241 la_data_out[8]
*242 la_data_out[9]
*243 la_oenb[0]
*244 la_oenb[10]
*245 la_oenb[11]
*246 la_oenb[12]
*247 la_oenb[13]
*248 la_oenb[14]
*249 la_oenb[15]
*250 la_oenb[16]
*251 la_oenb[17]
*252 la_oenb[18]
*253 la_oenb[19]
*254 la_oenb[1]
*255 la_oenb[20]
*256 la_oenb[21]
*257 la_oenb[22]
*258 la_oenb[23]
*259 la_oenb[24]
*260 la_oenb[25]
*261 la_oenb[26]
*262 la_oenb[27]
*263 la_oenb[28]
*264 la_oenb[29]
*265 la_oenb[2]
*266 la_oenb[30]
*267 la_oenb[31]
*268 la_oenb[32]
*269 la_oenb[33]
*270 la_oenb[34]
*271 la_oenb[35]
*272 la_oenb[36]
*273 la_oenb[37]
*274 la_oenb[38]
*275 la_oenb[39]
*276 la_oenb[3]
*277 la_oenb[40]
*278 la_oenb[41]
*279 la_oenb[42]
*280 la_oenb[43]
*281 la_oenb[44]
*282 la_oenb[45]
*283 la_oenb[46]
*284 la_oenb[47]
*285 la_oenb[48]
*286 la_oenb[49]
*287 la_oenb[4]
*288 la_oenb[50]
*289 la_oenb[51]
*290 la_oenb[52]
*291 la_oenb[53]
*292 la_oenb[54]
*293 la_oenb[55]
*294 la_oenb[56]
*295 la_oenb[57]
*296 la_oenb[58]
*297 la_oenb[59]
*298 la_oenb[5]
*299 la_oenb[60]
*300 la_oenb[61]
*301 la_oenb[62]
*302 la_oenb[63]
*303 la_oenb[6]
*304 la_oenb[7]
*305 la_oenb[8]
*306 la_oenb[9]
*307 user_clock2
*308 user_irq[0]
*309 user_irq[1]
*310 user_irq[2]
*313 wb_clk_i
*314 wb_rst_i
*315 wbs_ack_o
*316 wbs_adr_i[0]
*317 wbs_adr_i[10]
*318 wbs_adr_i[11]
*319 wbs_adr_i[12]
*320 wbs_adr_i[13]
*321 wbs_adr_i[14]
*322 wbs_adr_i[15]
*323 wbs_adr_i[16]
*324 wbs_adr_i[17]
*325 wbs_adr_i[18]
*326 wbs_adr_i[19]
*327 wbs_adr_i[1]
*328 wbs_adr_i[20]
*329 wbs_adr_i[21]
*330 wbs_adr_i[22]
*331 wbs_adr_i[23]
*332 wbs_adr_i[24]
*333 wbs_adr_i[25]
*334 wbs_adr_i[26]
*335 wbs_adr_i[27]
*336 wbs_adr_i[28]
*337 wbs_adr_i[29]
*338 wbs_adr_i[2]
*339 wbs_adr_i[30]
*340 wbs_adr_i[31]
*341 wbs_adr_i[3]
*342 wbs_adr_i[4]
*343 wbs_adr_i[5]
*344 wbs_adr_i[6]
*345 wbs_adr_i[7]
*346 wbs_adr_i[8]
*347 wbs_adr_i[9]
*348 wbs_cyc_i
*349 wbs_dat_i[0]
*350 wbs_dat_i[10]
*351 wbs_dat_i[11]
*352 wbs_dat_i[12]
*353 wbs_dat_i[13]
*354 wbs_dat_i[14]
*355 wbs_dat_i[15]
*356 wbs_dat_i[16]
*357 wbs_dat_i[17]
*358 wbs_dat_i[18]
*359 wbs_dat_i[19]
*360 wbs_dat_i[1]
*361 wbs_dat_i[20]
*362 wbs_dat_i[21]
*363 wbs_dat_i[22]
*364 wbs_dat_i[23]
*365 wbs_dat_i[24]
*366 wbs_dat_i[25]
*367 wbs_dat_i[26]
*368 wbs_dat_i[27]
*369 wbs_dat_i[28]
*370 wbs_dat_i[29]
*371 wbs_dat_i[2]
*372 wbs_dat_i[30]
*373 wbs_dat_i[31]
*374 wbs_dat_i[3]
*375 wbs_dat_i[4]
*376 wbs_dat_i[5]
*377 wbs_dat_i[6]
*378 wbs_dat_i[7]
*379 wbs_dat_i[8]
*380 wbs_dat_i[9]
*381 wbs_dat_o[0]
*382 wbs_dat_o[10]
*383 wbs_dat_o[11]
*384 wbs_dat_o[12]
*385 wbs_dat_o[13]
*386 wbs_dat_o[14]
*387 wbs_dat_o[15]
*388 wbs_dat_o[16]
*389 wbs_dat_o[17]
*390 wbs_dat_o[18]
*391 wbs_dat_o[19]
*392 wbs_dat_o[1]
*393 wbs_dat_o[20]
*394 wbs_dat_o[21]
*395 wbs_dat_o[22]
*396 wbs_dat_o[23]
*397 wbs_dat_o[24]
*398 wbs_dat_o[25]
*399 wbs_dat_o[26]
*400 wbs_dat_o[27]
*401 wbs_dat_o[28]
*402 wbs_dat_o[29]
*403 wbs_dat_o[2]
*404 wbs_dat_o[30]
*405 wbs_dat_o[31]
*406 wbs_dat_o[3]
*407 wbs_dat_o[4]
*408 wbs_dat_o[5]
*409 wbs_dat_o[6]
*410 wbs_dat_o[7]
*411 wbs_dat_o[8]
*412 wbs_dat_o[9]
*413 wbs_sel_i[0]
*414 wbs_sel_i[1]
*415 wbs_sel_i[2]
*416 wbs_sel_i[3]
*417 wbs_stb_i
*418 wbs_we_i
*419 line_a_buf_b_a\[0\]
*420 line_a_buf_b_a\[1\]
*421 line_a_buf_b_a\[2\]
*422 line_a_buf_b_a\[3\]
*423 line_a_buf_b_a\[4\]
*424 line_a_buf_b_a\[5\]
*425 line_a_buf_b_a\[6\]
*426 line_a_buf_b_a\[7\]
*427 line_a_buf_b_cen
*428 line_a_buf_b_clk
*429 line_a_buf_b_d\[0\]
*430 line_a_buf_b_d\[1\]
*431 line_a_buf_b_d\[2\]
*432 line_a_buf_b_d\[3\]
*433 line_a_buf_b_d\[4\]
*434 line_a_buf_b_d\[5\]
*435 line_a_buf_b_d\[6\]
*436 line_a_buf_b_d\[7\]
*437 line_a_buf_b_gwen
*438 line_a_buf_b_q\[0\]
*439 line_a_buf_b_q\[1\]
*440 line_a_buf_b_q\[2\]
*441 line_a_buf_b_q\[3\]
*442 line_a_buf_b_q\[4\]
*443 line_a_buf_b_q\[5\]
*444 line_a_buf_b_q\[6\]
*445 line_a_buf_b_q\[7\]
*446 line_a_buf_b_wen\[0\]
*447 line_a_buf_b_wen\[1\]
*448 line_a_buf_b_wen\[2\]
*449 line_a_buf_b_wen\[3\]
*450 line_a_buf_b_wen\[4\]
*451 line_a_buf_b_wen\[5\]
*452 line_a_buf_b_wen\[6\]
*453 line_a_buf_b_wen\[7\]
*454 line_a_buf_d_a\[0\]
*455 line_a_buf_d_a\[1\]
*456 line_a_buf_d_a\[2\]
*457 line_a_buf_d_a\[3\]
*458 line_a_buf_d_a\[4\]
*459 line_a_buf_d_a\[5\]
*460 line_a_buf_d_a\[6\]
*461 line_a_buf_d_a\[7\]
*462 line_a_buf_d_cen
*463 line_a_buf_d_clk
*464 line_a_buf_d_d\[0\]
*465 line_a_buf_d_d\[1\]
*466 line_a_buf_d_d\[2\]
*467 line_a_buf_d_d\[3\]
*468 line_a_buf_d_d\[4\]
*469 line_a_buf_d_d\[5\]
*470 line_a_buf_d_d\[6\]
*471 line_a_buf_d_d\[7\]
*472 line_a_buf_d_gwen
*473 line_a_buf_d_q\[0\]
*474 line_a_buf_d_q\[1\]
*475 line_a_buf_d_q\[2\]
*476 line_a_buf_d_q\[3\]
*477 line_a_buf_d_q\[4\]
*478 line_a_buf_d_q\[5\]
*479 line_a_buf_d_q\[6\]
*480 line_a_buf_d_q\[7\]
*481 line_a_buf_d_wen\[0\]
*482 line_a_buf_d_wen\[1\]
*483 line_a_buf_d_wen\[2\]
*484 line_a_buf_d_wen\[3\]
*485 line_a_buf_d_wen\[4\]
*486 line_a_buf_d_wen\[5\]
*487 line_a_buf_d_wen\[6\]
*488 line_a_buf_d_wen\[7\]
*489 line_a_buf_g_a\[0\]
*490 line_a_buf_g_a\[1\]
*491 line_a_buf_g_a\[2\]
*492 line_a_buf_g_a\[3\]
*493 line_a_buf_g_a\[4\]
*494 line_a_buf_g_a\[5\]
*495 line_a_buf_g_a\[6\]
*496 line_a_buf_g_a\[7\]
*497 line_a_buf_g_cen
*498 line_a_buf_g_clk
*499 line_a_buf_g_d\[0\]
*500 line_a_buf_g_d\[1\]
*501 line_a_buf_g_d\[2\]
*502 line_a_buf_g_d\[3\]
*503 line_a_buf_g_d\[4\]
*504 line_a_buf_g_d\[5\]
*505 line_a_buf_g_d\[6\]
*506 line_a_buf_g_d\[7\]
*507 line_a_buf_g_gwen
*508 line_a_buf_g_q\[0\]
*509 line_a_buf_g_q\[1\]
*510 line_a_buf_g_q\[2\]
*511 line_a_buf_g_q\[3\]
*512 line_a_buf_g_q\[4\]
*513 line_a_buf_g_q\[5\]
*514 line_a_buf_g_q\[6\]
*515 line_a_buf_g_q\[7\]
*516 line_a_buf_g_wen\[0\]
*517 line_a_buf_g_wen\[1\]
*518 line_a_buf_g_wen\[2\]
*519 line_a_buf_g_wen\[3\]
*520 line_a_buf_g_wen\[4\]
*521 line_a_buf_g_wen\[5\]
*522 line_a_buf_g_wen\[6\]
*523 line_a_buf_g_wen\[7\]
*524 line_a_buf_r_a\[0\]
*525 line_a_buf_r_a\[1\]
*526 line_a_buf_r_a\[2\]
*527 line_a_buf_r_a\[3\]
*528 line_a_buf_r_a\[4\]
*529 line_a_buf_r_a\[5\]
*530 line_a_buf_r_a\[6\]
*531 line_a_buf_r_a\[7\]
*532 line_a_buf_r_cen
*533 line_a_buf_r_clk
*534 line_a_buf_r_d\[0\]
*535 line_a_buf_r_d\[1\]
*536 line_a_buf_r_d\[2\]
*537 line_a_buf_r_d\[3\]
*538 line_a_buf_r_d\[4\]
*539 line_a_buf_r_d\[5\]
*540 line_a_buf_r_d\[6\]
*541 line_a_buf_r_d\[7\]
*542 line_a_buf_r_gwen
*543 line_a_buf_r_q\[0\]
*544 line_a_buf_r_q\[1\]
*545 line_a_buf_r_q\[2\]
*546 line_a_buf_r_q\[3\]
*547 line_a_buf_r_q\[4\]
*548 line_a_buf_r_q\[5\]
*549 line_a_buf_r_q\[6\]
*550 line_a_buf_r_q\[7\]
*551 line_a_buf_r_wen\[0\]
*552 line_a_buf_r_wen\[1\]
*553 line_a_buf_r_wen\[2\]
*554 line_a_buf_r_wen\[3\]
*555 line_a_buf_r_wen\[4\]
*556 line_a_buf_r_wen\[5\]
*557 line_a_buf_r_wen\[6\]
*558 line_a_buf_r_wen\[7\]
*559 line_b_buf_b_a\[0\]
*560 line_b_buf_b_a\[1\]
*561 line_b_buf_b_a\[2\]
*562 line_b_buf_b_a\[3\]
*563 line_b_buf_b_a\[4\]
*564 line_b_buf_b_a\[5\]
*565 line_b_buf_b_a\[6\]
*566 line_b_buf_b_a\[7\]
*567 line_b_buf_b_cen
*568 line_b_buf_b_clk
*569 line_b_buf_b_d\[0\]
*570 line_b_buf_b_d\[1\]
*571 line_b_buf_b_d\[2\]
*572 line_b_buf_b_d\[3\]
*573 line_b_buf_b_d\[4\]
*574 line_b_buf_b_d\[5\]
*575 line_b_buf_b_d\[6\]
*576 line_b_buf_b_d\[7\]
*577 line_b_buf_b_gwen
*578 line_b_buf_b_q\[0\]
*579 line_b_buf_b_q\[1\]
*580 line_b_buf_b_q\[2\]
*581 line_b_buf_b_q\[3\]
*582 line_b_buf_b_q\[4\]
*583 line_b_buf_b_q\[5\]
*584 line_b_buf_b_q\[6\]
*585 line_b_buf_b_q\[7\]
*586 line_b_buf_b_wen\[0\]
*587 line_b_buf_b_wen\[1\]
*588 line_b_buf_b_wen\[2\]
*589 line_b_buf_b_wen\[3\]
*590 line_b_buf_b_wen\[4\]
*591 line_b_buf_b_wen\[5\]
*592 line_b_buf_b_wen\[6\]
*593 line_b_buf_b_wen\[7\]
*594 line_b_buf_d_a\[0\]
*595 line_b_buf_d_a\[1\]
*596 line_b_buf_d_a\[2\]
*597 line_b_buf_d_a\[3\]
*598 line_b_buf_d_a\[4\]
*599 line_b_buf_d_a\[5\]
*600 line_b_buf_d_a\[6\]
*601 line_b_buf_d_a\[7\]
*602 line_b_buf_d_cen
*603 line_b_buf_d_clk
*604 line_b_buf_d_d\[0\]
*605 line_b_buf_d_d\[1\]
*606 line_b_buf_d_d\[2\]
*607 line_b_buf_d_d\[3\]
*608 line_b_buf_d_d\[4\]
*609 line_b_buf_d_d\[5\]
*610 line_b_buf_d_d\[6\]
*611 line_b_buf_d_d\[7\]
*612 line_b_buf_d_gwen
*613 line_b_buf_d_q\[0\]
*614 line_b_buf_d_q\[1\]
*615 line_b_buf_d_q\[2\]
*616 line_b_buf_d_q\[3\]
*617 line_b_buf_d_q\[4\]
*618 line_b_buf_d_q\[5\]
*619 line_b_buf_d_q\[6\]
*620 line_b_buf_d_q\[7\]
*621 line_b_buf_d_wen\[0\]
*622 line_b_buf_d_wen\[1\]
*623 line_b_buf_d_wen\[2\]
*624 line_b_buf_d_wen\[3\]
*625 line_b_buf_d_wen\[4\]
*626 line_b_buf_d_wen\[5\]
*627 line_b_buf_d_wen\[6\]
*628 line_b_buf_d_wen\[7\]
*629 line_b_buf_g_a\[0\]
*630 line_b_buf_g_a\[1\]
*631 line_b_buf_g_a\[2\]
*632 line_b_buf_g_a\[3\]
*633 line_b_buf_g_a\[4\]
*634 line_b_buf_g_a\[5\]
*635 line_b_buf_g_a\[6\]
*636 line_b_buf_g_a\[7\]
*637 line_b_buf_g_cen
*638 line_b_buf_g_clk
*639 line_b_buf_g_d\[0\]
*640 line_b_buf_g_d\[1\]
*641 line_b_buf_g_d\[2\]
*642 line_b_buf_g_d\[3\]
*643 line_b_buf_g_d\[4\]
*644 line_b_buf_g_d\[5\]
*645 line_b_buf_g_d\[6\]
*646 line_b_buf_g_d\[7\]
*647 line_b_buf_g_gwen
*648 line_b_buf_g_q\[0\]
*649 line_b_buf_g_q\[1\]
*650 line_b_buf_g_q\[2\]
*651 line_b_buf_g_q\[3\]
*652 line_b_buf_g_q\[4\]
*653 line_b_buf_g_q\[5\]
*654 line_b_buf_g_q\[6\]
*655 line_b_buf_g_q\[7\]
*656 line_b_buf_g_wen\[0\]
*657 line_b_buf_g_wen\[1\]
*658 line_b_buf_g_wen\[2\]
*659 line_b_buf_g_wen\[3\]
*660 line_b_buf_g_wen\[4\]
*661 line_b_buf_g_wen\[5\]
*662 line_b_buf_g_wen\[6\]
*663 line_b_buf_g_wen\[7\]
*664 line_b_buf_r_a\[0\]
*665 line_b_buf_r_a\[1\]
*666 line_b_buf_r_a\[2\]
*667 line_b_buf_r_a\[3\]
*668 line_b_buf_r_a\[4\]
*669 line_b_buf_r_a\[5\]
*670 line_b_buf_r_a\[6\]
*671 line_b_buf_r_a\[7\]
*672 line_b_buf_r_cen
*673 line_b_buf_r_clk
*674 line_b_buf_r_d\[0\]
*675 line_b_buf_r_d\[1\]
*676 line_b_buf_r_d\[2\]
*677 line_b_buf_r_d\[3\]
*678 line_b_buf_r_d\[4\]
*679 line_b_buf_r_d\[5\]
*680 line_b_buf_r_d\[6\]
*681 line_b_buf_r_d\[7\]
*682 line_b_buf_r_gwen
*683 line_b_buf_r_q\[0\]
*684 line_b_buf_r_q\[1\]
*685 line_b_buf_r_q\[2\]
*686 line_b_buf_r_q\[3\]
*687 line_b_buf_r_q\[4\]
*688 line_b_buf_r_q\[5\]
*689 line_b_buf_r_q\[6\]
*690 line_b_buf_r_q\[7\]
*691 line_b_buf_r_wen\[0\]
*692 line_b_buf_r_wen\[1\]
*693 line_b_buf_r_wen\[2\]
*694 line_b_buf_r_wen\[3\]
*695 line_b_buf_r_wen\[4\]
*696 line_b_buf_r_wen\[5\]
*697 line_b_buf_r_wen\[6\]
*698 line_b_buf_r_wen\[7\]
*699 line_a_buf_b
*700 line_a_buf_d
*701 line_a_buf_g
*702 line_a_buf_r
*703 line_b_buf_b
*704 line_b_buf_d
*705 line_b_buf_g
*706 line_b_buf_r
*707 mprj

*PORTS
io_in[0] I
io_in[10] I
io_in[11] I
io_in[12] I
io_in[13] I
io_in[14] I
io_in[15] I
io_in[16] I
io_in[17] I
io_in[18] I
io_in[19] I
io_in[1] I
io_in[20] I
io_in[21] I
io_in[22] I
io_in[23] I
io_in[24] I
io_in[25] I
io_in[26] I
io_in[27] I
io_in[28] I
io_in[29] I
io_in[2] I
io_in[30] I
io_in[31] I
io_in[32] I
io_in[33] I
io_in[34] I
io_in[35] I
io_in[36] I
io_in[37] I
io_in[3] I
io_in[4] I
io_in[5] I
io_in[6] I
io_in[7] I
io_in[8] I
io_in[9] I
io_oeb[0] O
io_oeb[10] O
io_oeb[11] O
io_oeb[12] O
io_oeb[13] O
io_oeb[14] O
io_oeb[15] O
io_oeb[16] O
io_oeb[17] O
io_oeb[18] O
io_oeb[19] O
io_oeb[1] O
io_oeb[20] O
io_oeb[21] O
io_oeb[22] O
io_oeb[23] O
io_oeb[24] O
io_oeb[25] O
io_oeb[26] O
io_oeb[27] O
io_oeb[28] O
io_oeb[29] O
io_oeb[2] O
io_oeb[30] O
io_oeb[31] O
io_oeb[32] O
io_oeb[33] O
io_oeb[34] O
io_oeb[35] O
io_oeb[36] O
io_oeb[37] O
io_oeb[3] O
io_oeb[4] O
io_oeb[5] O
io_oeb[6] O
io_oeb[7] O
io_oeb[8] O
io_oeb[9] O
io_out[0] O
io_out[10] O
io_out[11] O
io_out[12] O
io_out[13] O
io_out[14] O
io_out[15] O
io_out[16] O
io_out[17] O
io_out[18] O
io_out[19] O
io_out[1] O
io_out[20] O
io_out[21] O
io_out[22] O
io_out[23] O
io_out[24] O
io_out[25] O
io_out[26] O
io_out[27] O
io_out[28] O
io_out[29] O
io_out[2] O
io_out[30] O
io_out[31] O
io_out[32] O
io_out[33] O
io_out[34] O
io_out[35] O
io_out[36] O
io_out[37] O
io_out[3] O
io_out[4] O
io_out[5] O
io_out[6] O
io_out[7] O
io_out[8] O
io_out[9] O
la_data_in[0] I
la_data_in[10] I
la_data_in[11] I
la_data_in[12] I
la_data_in[13] I
la_data_in[14] I
la_data_in[15] I
la_data_in[16] I
la_data_in[17] I
la_data_in[18] I
la_data_in[19] I
la_data_in[1] I
la_data_in[20] I
la_data_in[21] I
la_data_in[22] I
la_data_in[23] I
la_data_in[24] I
la_data_in[25] I
la_data_in[26] I
la_data_in[27] I
la_data_in[28] I
la_data_in[29] I
la_data_in[2] I
la_data_in[30] I
la_data_in[31] I
la_data_in[32] I
la_data_in[33] I
la_data_in[34] I
la_data_in[35] I
la_data_in[36] I
la_data_in[37] I
la_data_in[38] I
la_data_in[39] I
la_data_in[3] I
la_data_in[40] I
la_data_in[41] I
la_data_in[42] I
la_data_in[43] I
la_data_in[44] I
la_data_in[45] I
la_data_in[46] I
la_data_in[47] I
la_data_in[48] I
la_data_in[49] I
la_data_in[4] I
la_data_in[50] I
la_data_in[51] I
la_data_in[52] I
la_data_in[53] I
la_data_in[54] I
la_data_in[55] I
la_data_in[56] I
la_data_in[57] I
la_data_in[58] I
la_data_in[59] I
la_data_in[5] I
la_data_in[60] I
la_data_in[61] I
la_data_in[62] I
la_data_in[63] I
la_data_in[6] I
la_data_in[7] I
la_data_in[8] I
la_data_in[9] I
la_data_out[0] O
la_data_out[10] O
la_data_out[11] O
la_data_out[12] O
la_data_out[13] O
la_data_out[14] O
la_data_out[15] O
la_data_out[16] O
la_data_out[17] O
la_data_out[18] O
la_data_out[19] O
la_data_out[1] O
la_data_out[20] O
la_data_out[21] O
la_data_out[22] O
la_data_out[23] O
la_data_out[24] O
la_data_out[25] O
la_data_out[26] O
la_data_out[27] O
la_data_out[28] O
la_data_out[29] O
la_data_out[2] O
la_data_out[30] O
la_data_out[31] O
la_data_out[32] O
la_data_out[33] O
la_data_out[34] O
la_data_out[35] O
la_data_out[36] O
la_data_out[37] O
la_data_out[38] O
la_data_out[39] O
la_data_out[3] O
la_data_out[40] O
la_data_out[41] O
la_data_out[42] O
la_data_out[43] O
la_data_out[44] O
la_data_out[45] O
la_data_out[46] O
la_data_out[47] O
la_data_out[48] O
la_data_out[49] O
la_data_out[4] O
la_data_out[50] O
la_data_out[51] O
la_data_out[52] O
la_data_out[53] O
la_data_out[54] O
la_data_out[55] O
la_data_out[56] O
la_data_out[57] O
la_data_out[58] O
la_data_out[59] O
la_data_out[5] O
la_data_out[60] O
la_data_out[61] O
la_data_out[62] O
la_data_out[63] O
la_data_out[6] O
la_data_out[7] O
la_data_out[8] O
la_data_out[9] O
la_oenb[0] I
la_oenb[10] I
la_oenb[11] I
la_oenb[12] I
la_oenb[13] I
la_oenb[14] I
la_oenb[15] I
la_oenb[16] I
la_oenb[17] I
la_oenb[18] I
la_oenb[19] I
la_oenb[1] I
la_oenb[20] I
la_oenb[21] I
la_oenb[22] I
la_oenb[23] I
la_oenb[24] I
la_oenb[25] I
la_oenb[26] I
la_oenb[27] I
la_oenb[28] I
la_oenb[29] I
la_oenb[2] I
la_oenb[30] I
la_oenb[31] I
la_oenb[32] I
la_oenb[33] I
la_oenb[34] I
la_oenb[35] I
la_oenb[36] I
la_oenb[37] I
la_oenb[38] I
la_oenb[39] I
la_oenb[3] I
la_oenb[40] I
la_oenb[41] I
la_oenb[42] I
la_oenb[43] I
la_oenb[44] I
la_oenb[45] I
la_oenb[46] I
la_oenb[47] I
la_oenb[48] I
la_oenb[49] I
la_oenb[4] I
la_oenb[50] I
la_oenb[51] I
la_oenb[52] I
la_oenb[53] I
la_oenb[54] I
la_oenb[55] I
la_oenb[56] I
la_oenb[57] I
la_oenb[58] I
la_oenb[59] I
la_oenb[5] I
la_oenb[60] I
la_oenb[61] I
la_oenb[62] I
la_oenb[63] I
la_oenb[6] I
la_oenb[7] I
la_oenb[8] I
la_oenb[9] I
user_clock2 I
user_irq[0] O
user_irq[1] O
user_irq[2] O
wb_clk_i I
wb_rst_i I
wbs_ack_o O
wbs_adr_i[0] I
wbs_adr_i[10] I
wbs_adr_i[11] I
wbs_adr_i[12] I
wbs_adr_i[13] I
wbs_adr_i[14] I
wbs_adr_i[15] I
wbs_adr_i[16] I
wbs_adr_i[17] I
wbs_adr_i[18] I
wbs_adr_i[19] I
wbs_adr_i[1] I
wbs_adr_i[20] I
wbs_adr_i[21] I
wbs_adr_i[22] I
wbs_adr_i[23] I
wbs_adr_i[24] I
wbs_adr_i[25] I
wbs_adr_i[26] I
wbs_adr_i[27] I
wbs_adr_i[28] I
wbs_adr_i[29] I
wbs_adr_i[2] I
wbs_adr_i[30] I
wbs_adr_i[31] I
wbs_adr_i[3] I
wbs_adr_i[4] I
wbs_adr_i[5] I
wbs_adr_i[6] I
wbs_adr_i[7] I
wbs_adr_i[8] I
wbs_adr_i[9] I
wbs_cyc_i I
wbs_dat_i[0] I
wbs_dat_i[10] I
wbs_dat_i[11] I
wbs_dat_i[12] I
wbs_dat_i[13] I
wbs_dat_i[14] I
wbs_dat_i[15] I
wbs_dat_i[16] I
wbs_dat_i[17] I
wbs_dat_i[18] I
wbs_dat_i[19] I
wbs_dat_i[1] I
wbs_dat_i[20] I
wbs_dat_i[21] I
wbs_dat_i[22] I
wbs_dat_i[23] I
wbs_dat_i[24] I
wbs_dat_i[25] I
wbs_dat_i[26] I
wbs_dat_i[27] I
wbs_dat_i[28] I
wbs_dat_i[29] I
wbs_dat_i[2] I
wbs_dat_i[30] I
wbs_dat_i[31] I
wbs_dat_i[3] I
wbs_dat_i[4] I
wbs_dat_i[5] I
wbs_dat_i[6] I
wbs_dat_i[7] I
wbs_dat_i[8] I
wbs_dat_i[9] I
wbs_dat_o[0] O
wbs_dat_o[10] O
wbs_dat_o[11] O
wbs_dat_o[12] O
wbs_dat_o[13] O
wbs_dat_o[14] O
wbs_dat_o[15] O
wbs_dat_o[16] O
wbs_dat_o[17] O
wbs_dat_o[18] O
wbs_dat_o[19] O
wbs_dat_o[1] O
wbs_dat_o[20] O
wbs_dat_o[21] O
wbs_dat_o[22] O
wbs_dat_o[23] O
wbs_dat_o[24] O
wbs_dat_o[25] O
wbs_dat_o[26] O
wbs_dat_o[27] O
wbs_dat_o[28] O
wbs_dat_o[29] O
wbs_dat_o[2] O
wbs_dat_o[30] O
wbs_dat_o[31] O
wbs_dat_o[3] O
wbs_dat_o[4] O
wbs_dat_o[5] O
wbs_dat_o[6] O
wbs_dat_o[7] O
wbs_dat_o[8] O
wbs_dat_o[9] O
wbs_sel_i[0] I
wbs_sel_i[1] I
wbs_sel_i[2] I
wbs_sel_i[3] I
wbs_stb_i I
wbs_we_i I

*D_NET *1 0.0122264
*CONN
*P io_in[0] I
*I *707:io_in[0] I *D tjrpu
*CAP
1 io_in[0] 0.00202992
2 *707:io_in[0] 0.0040833
3 *1:11 0.00611322
*RES
1 io_in[0] *1:11 25.172 
2 *1:11 *707:io_in[0] 36.036 
*END

*D_NET *12 0.0135424
*CONN
*P io_in[1] I
*I *707:io_in[1] I *D tjrpu
*CAP
1 io_in[1] 0.0035167
2 *707:io_in[1] 0.00325451
3 *12:11 0.00677121
*RES
1 io_in[1] *12:11 38.9 
2 *12:11 *707:io_in[1] 29.796 
*END

*D_NET *23 0.0153109
*CONN
*P io_in[2] I
*I *707:io_in[2] I *D tjrpu
*CAP
1 io_in[2] 0.0045592
2 *707:io_in[2] 0.00309627
3 *23:11 0.00765547
*RES
1 io_in[2] *23:11 47.844 
2 *23:11 *707:io_in[2] 28.34 
*END

*D_NET *24 0.0114143
*CONN
*P io_in[30] I
*I *707:io_in[8] I *D tjrpu
*CAP
1 io_in[30] 0.00440942
2 *707:io_in[8] 0.00129771
3 *24:11 0.00570713
*RES
1 io_in[30] *24:11 46.804 
2 *24:11 *707:io_in[8] 8.372 
*END

*D_NET *25 0.0104617
*CONN
*P io_in[31] I
*I *707:io_in[9] I *D tjrpu
*CAP
1 io_in[31] 0.00415421
2 *707:io_in[9] 0.00107662
3 *25:11 0.00523083
*RES
1 io_in[31] *25:11 44.308 
2 *25:11 *707:io_in[9] 8.372 
*END

*D_NET *26 0.00973132
*CONN
*P io_in[32] I
*I *707:io_in[10] I *D tjrpu
*CAP
1 io_in[32] 0.00378904
2 *707:io_in[10] 0.00107662
3 *26:11 0.00486566
*RES
1 io_in[32] *26:11 42.02 
2 *26:11 *707:io_in[10] 8.372 
*END

*D_NET *27 0.0106253
*CONN
*P io_in[33] I
*I *707:io_in[11] I *D tjrpu
*CAP
1 io_in[33] 0.00531263
2 *707:io_in[11] 0.00531263
*RES
1 io_in[33] *707:io_in[11] 47.688 
*END

*D_NET *28 0.00941976
*CONN
*P io_in[34] I
*I *707:io_in[12] I *D tjrpu
*CAP
1 io_in[34] 0.00470988
2 *707:io_in[12] 0.00470988
*RES
1 io_in[34] *707:io_in[12] 45.192 
*END

*D_NET *29 0.00790246
*CONN
*P io_in[35] I
*I *707:io_in[13] I *D tjrpu
*CAP
1 io_in[35] 0.00395123
2 *707:io_in[13] 0.00395123
*RES
1 io_in[35] *707:io_in[13] 42.696 
*END

*D_NET *30 0.00763141
*CONN
*P io_in[36] I
*I *707:io_in[14] I *D tjrpu
*CAP
1 io_in[36] 0.0038157
2 *707:io_in[14] 0.0038157
*RES
1 io_in[36] *707:io_in[14] 40.2 
*END

*D_NET *31 0.00710219
*CONN
*P io_in[37] I
*I *707:io_in[15] I *D tjrpu
*CAP
1 io_in[37] 0.0035511
2 *707:io_in[15] 0.0035511
*RES
1 io_in[37] *707:io_in[15] 37.912 
*END

*D_NET *32 0.0203114
*CONN
*P io_in[3] I
*I *707:io_in[3] I *D tjrpu
*CAP
1 io_in[3] 0.00441472
2 *707:io_in[3] 0.00369046
3 *32:7 0.00810518
4 *707:io_in[3] *61:11 0.00154016
5 *707:io_in[3] *108:11 0.00256086
*RES
1 io_in[3] *32:7 42.2 
2 *32:7 *707:io_in[3] 41.888 
*END

*D_NET *33 0.026318
*CONN
*P io_in[4] I
*I *707:io_in[4] I *D tjrpu
*CAP
1 io_in[4] 0.0043706
2 *707:io_in[4] 0.00377338
3 *33:7 0.00814398
4 *707:io_in[4] *70:9 0.00451188
5 *707:io_in[4] *109:11 0.00551813
*RES
1 io_in[4] *33:7 41.992 
2 *33:7 *707:io_in[4] 49.584 
*END

*D_NET *34 0.0264847
*CONN
*P io_in[5] I
*I *707:io_in[5] I *D tjrpu
*CAP
1 io_in[5] 0.00441472
2 *707:io_in[5] 0.000722589
3 *34:9 0.00418335
4 *34:7 0.00787549
5 *34:9 *71:11 0.00752389
6 *34:9 *110:9 0.00176465
*RES
1 io_in[5] *34:7 42.2 
2 *34:7 *34:9 45.864 
3 *34:9 *707:io_in[5] 11 
*END

*D_NET *35 0.0323075
*CONN
*P io_in[6] I
*I *707:io_in[6] I *D tjrpu
*CAP
1 io_in[6] 0.00434177
2 *707:io_in[6] 0.000810834
3 *35:9 0.0038495
4 *35:7 0.00738044
5 *35:7 *110:7 2.6362e-05
6 *35:9 *72:9 0.00434222
7 *35:9 *111:9 0.0115564
*RES
1 io_in[6] *35:7 41.784 
2 *35:7 *35:9 53.352 
3 *35:9 *707:io_in[6] 11.416 
*END

*D_NET *36 0.0378049
*CONN
*P io_in[7] I
*I *707:io_in[7] I *D tjrpu
*CAP
1 io_in[7] 0.004348
2 *707:io_in[7] 0.000810834
3 *36:9 0.0044083
4 *36:7 0.00794546
5 *36:9 *73:9 0.00311133
6 *36:9 *111:9 0.0027294
7 *36:9 *112:9 0.0144516
*RES
1 io_in[7] *36:7 41.784 
2 *36:7 *36:9 60.84 
3 *36:9 *707:io_in[7] 11.416 
*END

*D_NET *39 0.0132211
*CONN
*P io_oeb[0] O
*I *707:io_oeb[0] O *D tjrpu
*CAP
1 io_oeb[0] 0.00186128
2 *707:io_oeb[0] 0.00474926
3 *39:9 0.00661054
*RES
1 *707:io_oeb[0] *39:9 47.296 
2 *39:9 io_oeb[0] 18.904 
*END

*D_NET *50 0.0150399
*CONN
*P io_oeb[1] O
*I *707:io_oeb[1] O *D tjrpu
*CAP
1 io_oeb[1] 0.00442368
2 *707:io_oeb[1] 0.00309627
3 *50:7 0.00751995
*RES
1 *707:io_oeb[1] *50:7 32.84 
2 *50:7 io_oeb[1] 40.848 
*END

*D_NET *61 0.0178549
*CONN
*P io_oeb[2] O
*I *707:io_oeb[2] O *D tjrpu
*CAP
1 io_oeb[2] 0.00401541
2 *707:io_oeb[2] 0.00373154
3 *61:11 0.00774695
4 io_oeb[2] *99:7 0.000820831
5 *707:io_in[3] *61:11 0.00154016
*RES
1 *707:io_oeb[2] *61:11 44.1 
2 *61:11 io_oeb[2] 37.492 
*END

*D_NET *62 0.0106358
*CONN
*P io_oeb[30] O
*I *707:io_oeb[8] O *D tjrpu
*CAP
1 io_oeb[30] 0.00159768
2 *707:io_oeb[8] 0.00372023
3 *62:11 0.00531791
*RES
1 *707:io_oeb[8] *62:11 40.148 
2 *62:11 io_oeb[30] 13.364 
*END

*D_NET *63 0.0114609
*CONN
*P io_oeb[31] O
*I *707:io_oeb[9] O *D tjrpu
*CAP
1 io_oeb[31] 0.0013264
2 *707:io_oeb[9] 0.00440403
3 *63:11 0.00573043
*RES
1 *707:io_oeb[9] *63:11 40.148 
2 *63:11 io_oeb[31] 10.868 
*END

*D_NET *64 0.00985318
*CONN
*P io_oeb[32] O
*I *707:io_oeb[10] O *D tjrpu
*CAP
1 io_oeb[32] 0.00492659
2 *707:io_oeb[10] 0.00492659
*RES
1 *707:io_oeb[10] io_oeb[32] 48.52 
*END

*D_NET *65 0.00909513
*CONN
*P io_oeb[33] O
*I *707:io_oeb[11] O *D tjrpu
*CAP
1 io_oeb[33] 0.00454757
2 *707:io_oeb[11] 0.00454757
*RES
1 *707:io_oeb[11] io_oeb[33] 46.232 
*END

*D_NET *66 0.00910063
*CONN
*P io_oeb[34] O
*I *707:io_oeb[12] O *D tjrpu
*CAP
1 io_oeb[34] 0.00455031
2 *707:io_oeb[12] 0.00455031
*RES
1 *707:io_oeb[12] io_oeb[34] 43.528 
*END

*D_NET *67 0.00775527
*CONN
*P io_oeb[35] O
*I *707:io_oeb[13] O *D tjrpu
*CAP
1 io_oeb[35] 0.00387764
2 *707:io_oeb[13] 0.00387764
*RES
1 *707:io_oeb[13] io_oeb[35] 41.032 
*END

*D_NET *68 0.00704849
*CONN
*P io_oeb[36] O
*I *707:io_oeb[14] O *D tjrpu
*CAP
1 io_oeb[36] 0.00352425
2 *707:io_oeb[14] 0.00352425
*RES
1 *707:io_oeb[14] io_oeb[36] 38.536 
*END

*D_NET *69 0.00676063
*CONN
*P io_oeb[37] O
*I *707:io_oeb[15] O *D tjrpu
*CAP
1 io_oeb[37] 0.00338032
2 *707:io_oeb[15] 0.00338032
*RES
1 *707:io_oeb[15] io_oeb[37] 36.04 
*END

*D_NET *70 0.024489
*CONN
*P io_oeb[3] O
*I *707:io_oeb[3] O *D tjrpu
*CAP
1 io_oeb[3] 0.00441472
2 *707:io_oeb[3] 0.00383444
3 *70:9 0.00824917
4 *70:9 *108:11 0.00347883
5 *707:io_in[4] *70:9 0.00451188
*RES
1 *707:io_oeb[3] *70:9 46.88 
2 *70:9 io_oeb[3] 42.2 
*END

*D_NET *71 0.0302679
*CONN
*P io_oeb[4] O
*I *707:io_oeb[4] O *D tjrpu
*CAP
1 io_oeb[4] 0.0043706
2 *707:io_oeb[4] 0.000766711
3 *71:11 0.00730232
4 *71:7 0.00369843
5 *71:11 *109:11 0.00660592
6 *34:9 *71:11 0.00752389
*RES
1 *707:io_oeb[4] *71:7 11.208 
2 *71:7 *71:11 47.868 
3 *71:11 io_oeb[4] 37.492 
*END

*D_NET *72 0.0242972
*CONN
*P io_oeb[5] O
*I *707:io_oeb[5] O *D tjrpu
*CAP
1 io_oeb[5] 0.00441471
2 *707:io_oeb[5] 0.000722589
3 *72:9 0.00791682
4 *72:7 0.00422471
5 *72:9 *110:9 0.00196931
6 *72:9 *111:9 0.000706869
7 *35:9 *72:9 0.00434222
*RES
1 *707:io_oeb[5] *72:7 11 
2 *72:7 *72:9 50.648 
3 *72:9 io_oeb[5] 42.2 
*END

*D_NET *73 0.0365373
*CONN
*P io_oeb[6] O
*I *707:io_oeb[6] O *D tjrpu
*CAP
1 io_oeb[6] 0.00443624
2 *707:io_oeb[6] 0.000722589
3 *73:9 0.00790632
4 *73:7 0.00419266
5 *73:9 *111:9 0.0125006
6 *73:9 *112:9 0.00366761
7 *36:9 *73:9 0.00311133
*RES
1 *707:io_oeb[6] *73:7 11 
2 *73:7 *73:9 58.344 
3 *73:9 io_oeb[6] 42.2 
*END

*D_NET *74 0.0368734
*CONN
*P io_oeb[7] O
*I *707:io_oeb[7] O *D tjrpu
*CAP
1 io_oeb[7] 0.00443624
2 *707:io_oeb[7] 0.000930078
3 *74:9 0.00973946
4 *74:7 0.0062333
5 *74:9 *112:9 0.0155343
*RES
1 *707:io_oeb[7] *74:7 11 
2 *74:7 *74:9 65.832 
3 *74:9 io_oeb[7] 42.2 
*END

*D_NET *77 0.0126986
*CONN
*P io_out[0] O
*I *707:io_out[0] O *D tjrpu
*CAP
1 io_out[0] 0.00186128
2 *707:io_out[0] 0.00448803
3 *77:11 0.00634931
*RES
1 *707:io_out[0] *77:11 49.3 
2 *77:11 io_out[0] 14.404 
*END

*D_NET *88 0.0143163
*CONN
*P io_out[1] O
*I *707:io_out[1] O *D tjrpu
*CAP
1 io_out[1] 0.00217777
2 *707:io_out[1] 0.00498038
3 *88:9 0.00715815
*RES
1 *707:io_out[1] *88:9 49.376 
2 *88:9 io_out[1] 21.816 
*END

*D_NET *99 0.0167267
*CONN
*P io_out[2] O
*I *707:io_out[2] O *D tjrpu
*CAP
1 io_out[2] 0.00438309
2 *707:io_out[2] 0.00356986
3 *99:7 0.00795296
4 io_oeb[2] *99:7 0.000820831
*RES
1 *707:io_out[2] *99:7 39.08 
2 *99:7 io_out[2] 39.6 
*END

*D_NET *100 0.0106021
*CONN
*P io_out[30] O
*I *707:io_out[8] O *D tjrpu
*CAP
1 io_out[30] 0.00159768
2 *707:io_out[8] 0.00370337
3 *100:11 0.00530105
*RES
1 *707:io_out[8] *100:11 41.188 
2 *100:11 io_out[30] 13.364 
*END

*D_NET *101 0.0100864
*CONN
*P io_out[31] O
*I *707:io_out[9] O *D tjrpu
*CAP
1 io_out[31] 0.00159768
2 *707:io_out[9] 0.00344551
3 *101:11 0.00504319
*RES
1 *707:io_out[9] *101:11 38.484 
2 *101:11 io_out[31] 13.364 
*END

*D_NET *102 0.0118445
*CONN
*P io_out[32] O
*I *707:io_out[10] O *D tjrpu
*CAP
1 io_out[32] 0.00592225
2 *707:io_out[10] 0.00592225
*RES
1 *707:io_out[10] io_out[32] 49.352 
*END

*D_NET *103 0.00879004
*CONN
*P io_out[33] O
*I *707:io_out[11] O *D tjrpu
*CAP
1 io_out[33] 0.00439502
2 *707:io_out[11] 0.00439502
*RES
1 *707:io_out[11] io_out[33] 46.856 
*END

*D_NET *104 0.00850218
*CONN
*P io_out[34] O